atom_style atomic
units metal
boundary p p p
#atom_modify sort 0 0.0
newton on

read_data data.lammps
Reading data file ...
  triclinic box = (0 0 0) to (4.3790145 4.3790145 4.3790145) with tilt (-0 0 0)
  reading atoms ...
  8 atoms
replicate 10 10 20
Replicating atoms ...
  triclinic box = (0 0 0) to (43.790145 43.790145 87.58029) with tilt (-0 0 0)
  16000 atoms
  replicate CPU = 0.007 seconds

### interactions

pair_style flare
pair_coeff * * lmp.flare
Reading potential file lmp.flare with DATE: Thu

# compute unc all flare/std/atom L_inv_lmp.flare sparse_desc_lmp.flare
# compute MaxUnc all reduce max c_unc

mass 1 12.011000
mass 2 28.085000

thermo_style custom step temp press cpu pxx pyy pzz pxy pxz pyz ke pe etotal vol lx ly lz atoms    #c_MaxUnc
thermo 1000
timestep 0.0005
restart 100000 restart_*.dat

#################### Equilibrate at P and T_es ##############################
velocity all create $T 41928459 rot yes dist gaussian
velocity all create 2800 41928459 rot yes dist gaussian
fix mom all momentum 1000 linear 1 1 1 angular

fix 1 all npt temp $T $T $(100.0*dt) iso $P $P $(1000.0*dt)
fix 1 all npt temp 2800 $T $(100.0*dt) iso $P $P $(1000.0*dt)
fix 1 all npt temp 2800 2800 $(100.0*dt) iso $P $P $(1000.0*dt)
fix 1 all npt temp 2800 2800 0.050000000000000002776 iso $P $P $(1000.0*dt)
fix 1 all npt temp 2800 2800 0.050000000000000002776 iso 100000 $P $(1000.0*dt)
fix 1 all npt temp 2800 2800 0.050000000000000002776 iso 100000 100000 $(1000.0*dt)
fix 1 all npt temp 2800 2800 0.050000000000000002776 iso 100000 100000 0.5
dump 1 all custom 1000 1equil.bin id type x y z vx vy vz
run   10000 # report performance
  update every 1 steps, delay 10 steps, check yes
Step          Temp          Press           CPU            Pxx            Pyy            Pzz            Pxy            Pxz            Pyz           KinEng         PotEng         TotEng         Volume           Lx             Ly             Lz          Atoms
0   2800           55537.333      0              55258.481      55664.454      55689.064     -388.53912      174.99747     -439.29551      5790.4926     -4109.4047      1681.0878      167941.93      43.790145      43.790145      87.58029           16000
Averages over the last 6 of 11 rows, steps 5000 to 10000:
Temp Press Pxx Pyy Pzz Pxy Pxz Pyz KinEng PotEng TotEng Volume Lx Ly Lz Atoms
2793.5 100966 100874 101261 100764 -248.972 679.787 -740.758 5777.05 2223.38 8000.44 168554 43.8433 43.8433 87.6865 16000
Loop time of 64.5764 on 8 procs for 10000 steps with 16000 atoms

run  990000
Step          Temp          Press           CPU            Pxx            Pyy            Pzz            Pxy            Pxz            Pyz           KinEng         PotEng         TotEng         Volume           Lx             Ly             Lz          Atoms
10000   2812.0237      103360.76      0              102619.92      103749.02      103713.33     -2126.0277      1887.0815     -2071.5583      5815.358       2220.044       8035.402       168362.3       43.826651      43.826651      87.653302          16000
Averages over the last 496 of 991 rows, steps 505000 to 1000000:
Temp Press Pxx Pyy Pzz Pxy Pxz Pyz KinEng PotEng TotEng Volume Lx Ly Lz Atoms
2799.89 99894.3 99883.3 99899.5 99900.2 -4.72187 -81.3127 -22.7524 5790.27 2212.78 8003.04 168623 43.8493 43.8493 87.6985 16000
Loop time of 6386.4 on 8 procs for 990000 steps with 16000 atoms

unfix 1
undump 1

#################### Fix half atoms along z-axis, heat the other half #################
region middle block INF INF INF INF 22.0 66.0
group mobile region middle
8038 atoms in group mobile
fix 2 mobile npt temp $T 5000 $(100.0*dt) z $P $P $(1000.0*dt)
fix 2 mobile npt temp 2800 5000 $(100.0*dt) z $P $P $(1000.0*dt)
fix 2 mobile npt temp 2800 5000 0.050000000000000002776 z $P $P $(1000.0*dt)
fix 2 mobile npt temp 2800 5000 0.050000000000000002776 z 100000 $P $(1000.0*dt)
fix 2 mobile npt temp 2800 5000 0.050000000000000002776 z 100000 100000 $(1000.0*dt)
fix 2 mobile npt temp 2800 5000 0.050000000000000002776 z 100000 100000 0.5
dump 2 all custom 1000 2heathalf.bin id type x y z vx vy vz
run  1000000
Step          Temp          Press           CPU            Pxx            Pyy            Pzz            Pxy            Pxz            Pyz           KinEng         PotEng         TotEng         Volume           Lx             Ly             Lz          Atoms
1000000   2779.4514      100369.53      0              101048.68      100751.27      99308.648      856.80644      2997.9858     -266.11977      5747.9973      2228.6702      7976.6675      168604.34      43.847642      43.847642      87.695285          16000
Averages over the last 501 of 1001 rows, steps 1500000 to 2000000:
Temp Press Pxx Pyy Pzz Pxy Pxz Pyz KinEng PotEng TotEng Volume Lx Ly Lz Atoms
4450.74 136514 154772 154841 99928.4 2167.93 1574.1 226.604 9204.28 13902.3 23106.5 176712 43.8476 43.8476 91.9121 16000
Loop time of 6318.22 on 8 procs for 1000000 steps with 16000 atoms

unfix 2
undump 2

#################### Cool down the hot half to T_es ##############################
fix 3 mobile npt temp 5000 $T $(100.0*dt) z $P $P $(1000.0*dt)
fix 3 mobile npt temp 5000 2800 $(100.0*dt) z $P $P $(1000.0*dt)
fix 3 mobile npt temp 5000 2800 0.050000000000000002776 z $P $P $(1000.0*dt)
fix 3 mobile npt temp 5000 2800 0.050000000000000002776 z 100000 $P $(1000.0*dt)
fix 3 mobile npt temp 5000 2800 0.050000000000000002776 z 100000 100000 $(1000.0*dt)
fix 3 mobile npt temp 5000 2800 0.050000000000000002776 z 100000 100000 0.5
dump 3 all custom 1000 3coolhalf.bin id type x y z vx vy vz
run  1000000
Step          Temp          Press           CPU            Pxx            Pyy            Pzz            Pxy            Pxz            Pyz           KinEng         PotEng         TotEng         Volume           Lx             Ly             Lz          Atoms
2000000   4987.1784      137848.25      0              158313.39      158538.58      96692.779      2221.763       2100.1918     -354.20193      10313.65       14634.538      24948.188      178352.42      43.847642      43.847642      92.765507          16000
Averages over the last 501 of 1001 rows, steps 2500000 to 3000000:
Temp Press Pxx Pyy Pzz Pxy Pxz Pyz KinEng PotEng TotEng Volume Lx Ly Lz Atoms
3350.05 121806 132529 132539 100349 1341.39 1578.72 177.703 6928.02 10713.4 17641.4 173476 43.8476 43.8476 90.2292 16000
Loop time of 6325.94 on 8 procs for 1000000 steps with 16000 atoms

unfix 3
undump 3

#################### Whole system relax in the nph ensemble at P ######################
fix 4 all nph iso $P $P $(1000.0*dt)
fix 4 all nph iso 100000 $P $(1000.0*dt)
fix 4 all nph iso 100000 100000 $(1000.0*dt)
fix 4 all nph iso 100000 100000 0.5
dump 4 all custom 1000 4nph.bin id type x y z vx vy vz
run 1000000
Step          Temp          Press           CPU            Pxx            Pyy            Pzz            Pxy            Pxz            Pyz           KinEng         PotEng         TotEng         Volume           Lx             Ly             Lz          Atoms
3000000   2806.7415      105674.1       0              109140.59      108735.28      99146.423      3197.7253      3617.2851     -1686.5921      5804.4343      4893.38        10697.814      170976.73      43.847642      43.847642      88.929225          16000
Averages over the last 501 of 1001 rows, steps 3500000 to 4000000:
Temp Press Pxx Pyy Pzz Pxy Pxz Pyz KinEng PotEng TotEng Volume Lx Ly Lz Atoms
3173.73 99960.6 109176 109305 81400.4 161.061 -279.867 -901.201 6563.37 3873.4 10436.8 170409 43.7991 43.7991 88.8307 16000
Loop time of 7201.01 on 8 procs for 1000000 steps with 16000 atoms
