atom_style atomic
units metal
boundary p p p
#atom_modify sort 0 0.0
newton on

read_data data.lammps
Reading data file ...
  triclinic box = (0 0 0) to (4.3790145 4.3790145 4.3790145) with tilt (-0 0 0)
  reading atoms ...
  8 atoms
replicate 10 10 20
Replicating atoms ...
  triclinic box = (0 0 0) to (43.790145 43.790145 87.58029) with tilt (-0 0 0)
  16000 atoms
  replicate CPU = 0.007 seconds

### interactions

pair_style flare
pair_coeff * * lmp.flare
Reading potential file lmp.flare with DATE: Thu

# compute unc all flare/std/atom L_inv_lmp.flare sparse_desc_lmp.flare
# compute MaxUnc all reduce max c_unc

mass 1 12.011000
mass 2 28.085000

thermo_style custom step temp press cpu pxx pyy pzz pxy pxz pyz ke pe etotal vol lx ly lz atoms    #c_MaxUnc
thermo 1000
timestep 0.0005
restart 100000 restart_*.dat

#################### Equilibrate at P and T_es ##############################
velocity all create $T 41928459 rot yes dist gaussian
velocity all create 3600 41928459 rot yes dist gaussian
fix mom all momentum 1000 linear 1 1 1 angular

fix 1 all npt temp $T $T $(100.0*dt) iso $P $P $(1000.0*dt)
fix 1 all npt temp 3600 $T $(100.0*dt) iso $P $P $(1000.0*dt)
fix 1 all npt temp 3600 3600 $(100.0*dt) iso $P $P $(1000.0*dt)
fix 1 all npt temp 3600 3600 0.050000000000000002776 iso $P $P $(1000.0*dt)
fix 1 all npt temp 3600 3600 0.050000000000000002776 iso 100000 $P $(1000.0*dt)
fix 1 all npt temp 3600 3600 0.050000000000000002776 iso 100000 100000 $(1000.0*dt)
fix 1 all npt temp 3600 3600 0.050000000000000002776 iso 100000 100000 0.5
dump 1 all custom 1000 1equil.bin id type x y z vx vy vz
run   10000 # report performance
  update every 1 steps, delay 10 steps, check yes
Step          Temp          Press           CPU            Pxx            Pyy            Pzz            Pxy            Pxz            Pyz           KinEng         PotEng         TotEng         Volume           Lx             Ly             Lz          Atoms
0   3600           66059.554      0              65701.03       66222.995      66254.636     -499.5503       224.99675     -564.80851      7444.919      -4109.4047      3335.5143      167941.93      43.790145      43.790145      87.58029           16000
Averages over the last 6 of 11 rows, steps 5000 to 10000:
Temp Press Pxx Pyy Pzz Pxy Pxz Pyz KinEng PotEng TotEng Volume Lx Ly Lz Atoms
3618.83 100789 100738 101210 100420 295.282 -596.587 273.179 7483.86 4302.53 11786.4 171068 44.0601 44.0601 88.1203 16000
Loop time of 62.6737 on 8 procs for 10000 steps with 16000 atoms

run  990000
Step          Temp          Press           CPU            Pxx            Pyy            Pzz            Pxy            Pxz            Pyz           KinEng         PotEng         TotEng         Volume           Lx             Ly             Lz          Atoms
10000   3635.7536      99522.663      0              100340.55      98060.805      100166.64      1816.9306      508.19821     -398.35879      7518.8587      4367.6513      11886.51       171203.08      44.071773      44.071773      88.143547          16000
Averages over the last 496 of 991 rows, steps 505000 to 1000000:
Temp Press Pxx Pyy Pzz Pxy Pxz Pyz KinEng PotEng TotEng Volume Lx Ly Lz Atoms
3599.65 100063 100098 100138 99952.7 75.6311 -55.0326 -45.5876 7444.2 4353.55 11797.7 171164 44.0684 44.0684 88.1368 16000
Loop time of 6213.77 on 8 procs for 990000 steps with 16000 atoms

unfix 1
undump 1

#################### Fix half atoms along z-axis, heat the other half #################
region middle block INF INF INF INF 22.0 66.0
group mobile region middle
7984 atoms in group mobile
fix 2 mobile npt temp $T 5000 $(100.0*dt) z $P $P $(1000.0*dt)
fix 2 mobile npt temp 3600 5000 $(100.0*dt) z $P $P $(1000.0*dt)
fix 2 mobile npt temp 3600 5000 0.050000000000000002776 z $P $P $(1000.0*dt)
fix 2 mobile npt temp 3600 5000 0.050000000000000002776 z 100000 $P $(1000.0*dt)
fix 2 mobile npt temp 3600 5000 0.050000000000000002776 z 100000 100000 $(1000.0*dt)
fix 2 mobile npt temp 3600 5000 0.050000000000000002776 z 100000 100000 0.5
dump 2 all custom 1000 2heathalf.bin id type x y z vx vy vz
run  1000000
Step          Temp          Press           CPU            Pxx            Pyy            Pzz            Pxy            Pxz            Pyz           KinEng         PotEng         TotEng         Volume           Lx             Ly             Lz          Atoms
1000000   3631.1854      96663.652      0              96282.156      98667.021      95041.779      88.195014      1129.8088      2144.443       7509.4114      4290.427       11799.838      171332.99      44.082918      44.082918      88.165836          16000
Averages over the last 501 of 1001 rows, steps 1500000 to 2000000:
Temp Press Pxx Pyy Pzz Pxy Pxz Pyz KinEng PotEng TotEng Volume Lx Ly Lz Atoms
4649.4 128511 142409 143055 100068 2288.35 842.587 1537.57 9615.11 14506.3 24121.4 178383 44.0829 44.0829 91.7935 16000
Loop time of 6135.73 on 8 procs for 1000000 steps with 16000 atoms

unfix 2
undump 2

#################### Cool down the hot half to T_es ##############################
fix 3 mobile npt temp 5000 $T $(100.0*dt) z $P $P $(1000.0*dt)
fix 3 mobile npt temp 5000 3600 $(100.0*dt) z $P $P $(1000.0*dt)
fix 3 mobile npt temp 5000 3600 0.050000000000000002776 z $P $P $(1000.0*dt)
fix 3 mobile npt temp 5000 3600 0.050000000000000002776 z 100000 $P $(1000.0*dt)
fix 3 mobile npt temp 5000 3600 0.050000000000000002776 z 100000 100000 $(1000.0*dt)
fix 3 mobile npt temp 5000 3600 0.050000000000000002776 z 100000 100000 0.5
dump 3 all custom 1000 3coolhalf.bin id type x y z vx vy vz
run  1000000
Step          Temp          Press           CPU            Pxx            Pyy            Pzz            Pxy            Pxz            Pyz           KinEng         PotEng         TotEng         Volume           Lx             Ly             Lz          Atoms
2000000   4997.79        128558.36      0              146308.76      145825.01      93541.295      3513.3418      2596.3227      4463.0281      10335.595      15044.137      25379.732      179641.58      44.082918      44.082918      92.441332          16000
Averages over the last 501 of 1001 rows, steps 2500000 to 3000000:
Temp Press Pxx Pyy Pzz Pxy Pxz Pyz KinEng PotEng TotEng Volume Lx Ly Lz Atoms
3949.4 120500 130381 131064 100054 1691.55 978.227 1585.77 8167.49 13084.2 21251.7 176388 44.0829 44.0829 90.7671 16000
Loop time of 6056.22 on 8 procs for 1000000 steps with 16000 atoms

unfix 3
undump 3

#################### Whole system relax in the nph ensemble at P ######################
fix 4 all nph iso $P $P $(1000.0*dt)
fix 4 all nph iso 100000 $P $(1000.0*dt)
fix 4 all nph iso 100000 100000 $(1000.0*dt)
fix 4 all nph iso 100000 100000 0.5
dump 4 all custom 1000 4nph.bin id type x y z vx vy vz
run 1000000
Step          Temp          Press           CPU            Pxx            Pyy            Pzz            Pxy            Pxz            Pyz           KinEng         PotEng         TotEng         Volume           Lx             Ly             Lz          Atoms
3000000   3603.8731      116157.7       0              123016.39      123096.75      102359.95      1087.145       1589.934       1184.1012      7452.9286      11854.116      19307.044      175200.43      44.082918      44.082918      90.155971          16000
Averages over the last 501 of 1001 rows, steps 3500000 to 4000000:
Temp Press Pxx Pyy Pzz Pxy Pxz Pyz KinEng PotEng TotEng Volume Lx Ly Lz Atoms
3307.81 99957.4 95743.5 92457.4 111671 -1191.58 129.488 131.679 6840.66 11377.1 18217.7 187193 45.0665 45.0665 92.1676 16000
Loop time of 6683.66 on 8 procs for 1000000 steps with 16000 atoms
