atom_style atomic
units metal
boundary p p p
#atom_modify sort 0 0.0
newton on

read_data data.lammps
Reading data file ...
  triclinic box = (0 0 0) to (4.3790145 4.3790145 4.3790145) with tilt (-0 0 0)
  reading atoms ...
  8 atoms
replicate 10 10 20
Replicating atoms ...
  triclinic box = (0 0 0) to (43.790145 43.790145 87.58029) with tilt (-0 0 0)
  16000 atoms
  replicate CPU = 0.016 seconds

### interactions

pair_style flare
pair_coeff * * lmp.flare
Reading potential file lmp.flare with DATE: Thu

# compute unc all flare/std/atom L_inv_lmp.flare sparse_desc_lmp.flare
# compute MaxUnc all reduce max c_unc

mass 1 12.011000
mass 2 28.085000

thermo_style custom step temp press cpu pxx pyy pzz pxy pxz pyz ke pe etotal vol lx ly lz atoms    #c_MaxUnc
thermo 1000
timestep 0.0005
restart 100000 restart_*.dat

#################### Equilibrate at P and T_es ##############################
velocity all create $T 41928459 rot yes dist gaussian
velocity all create 3600 41928459 rot yes dist gaussian
fix mom all momentum 1000 linear 1 1 1 angular

fix 1 all npt temp $T $T $(100.0*dt) iso $P $P $(1000.0*dt)
fix 1 all npt temp 3600 $T $(100.0*dt) iso $P $P $(1000.0*dt)
fix 1 all npt temp 3600 3600 $(100.0*dt) iso $P $P $(1000.0*dt)
fix 1 all npt temp 3600 3600 0.050000000000000002776 iso $P $P $(1000.0*dt)
fix 1 all npt temp 3600 3600 0.050000000000000002776 iso 600000 $P $(1000.0*dt)
fix 1 all npt temp 3600 3600 0.050000000000000002776 iso 600000 600000 $(1000.0*dt)
fix 1 all npt temp 3600 3600 0.050000000000000002776 iso 600000 600000 0.5
dump 1 all custom 1000 1equil.bin id type x y z vx vy vz
run   10000 # report performance
  update every 1 steps, delay 10 steps, check yes
Step          Temp          Press           CPU            Pxx            Pyy            Pzz            Pxy            Pxz            Pyz           KinEng         PotEng         TotEng         Volume           Lx             Ly             Lz          Atoms
0   3600           66059.554      0              65701.03       66222.995      66254.636     -499.5503       224.99675     -564.80851      7444.919      -4109.4047      3335.5143      167941.93      43.790145      43.790145      87.58029           16000
Averages over the last 6 of 11 rows, steps 5000 to 10000:
Temp Press Pxx Pyy Pzz Pxy Pxz Pyz KinEng PotEng TotEng Volume Lx Ly Lz Atoms
3611.26 600519 600499 600362 600697 2798.1 389.152 1565.18 7468.2 7593.24 15061.4 142307 41.438 41.438 82.8761 16000
Loop time of 65.0888 on 8 procs for 10000 steps with 16000 atoms

run  990000
Step          Temp          Press           CPU            Pxx            Pyy            Pzz            Pxy            Pxz            Pyz           KinEng         PotEng         TotEng         Volume           Lx             Ly             Lz          Atoms
10000   3639.3107      605044.96      0              605238.72      604401.01      605495.16      7109.0605     -1654.6821     -2751.807       7526.2148      7678.2463      15204.461      142138.51      41.421637      41.421637      82.843274          16000
Averages over the last 496 of 991 rows, steps 505000 to 1000000:
Temp Press Pxx Pyy Pzz Pxy Pxz Pyz KinEng PotEng TotEng Volume Lx Ly Lz Atoms
3600.97 599965 599978 599943 599976 55.5886 -56.8308 -18.8884 7446.93 7615.77 15062.7 142305 41.4378 41.4378 82.8756 16000
Loop time of 6499.08 on 8 procs for 990000 steps with 16000 atoms

unfix 1
undump 1

#################### Fix half atoms along z-axis, heat the other half #################
region middle block INF INF INF INF 22.0 66.0
group mobile region middle
8505 atoms in group mobile
fix 2 mobile npt temp $T 5000 $(100.0*dt) z $P $P $(1000.0*dt)
fix 2 mobile npt temp 3600 5000 $(100.0*dt) z $P $P $(1000.0*dt)
fix 2 mobile npt temp 3600 5000 0.050000000000000002776 z $P $P $(1000.0*dt)
fix 2 mobile npt temp 3600 5000 0.050000000000000002776 z 600000 $P $(1000.0*dt)
fix 2 mobile npt temp 3600 5000 0.050000000000000002776 z 600000 600000 $(1000.0*dt)
fix 2 mobile npt temp 3600 5000 0.050000000000000002776 z 600000 600000 0.5
dump 2 all custom 1000 2heathalf.bin id type x y z vx vy vz
run  1000000
Step          Temp          Press           CPU            Pxx            Pyy            Pzz            Pxy            Pxz            Pyz           KinEng         PotEng         TotEng         Volume           Lx             Ly             Lz          Atoms
1000000   3571.3177      597213.29      0              599786.81      596341.84      595511.23     -1909.5807      1876.136      -2830.4122      7385.6031      7736.1446      15121.748      142473.18      41.45412       41.45412       82.908241          16000
Averages over the last 501 of 1001 rows, steps 1500000 to 2000000:
Temp Press Pxx Pyy Pzz Pxy Pxz Pyz KinEng PotEng TotEng Volume Lx Ly Lz Atoms
4649.39 603281 605694 604081 600067 -1247.73 1944.38 411.621 9615.1 18561.6 28176.7 143312 41.4541 41.4541 83.3962 16000
Loop time of 6926.29 on 8 procs for 1000000 steps with 16000 atoms

unfix 2
undump 2

#################### Cool down the hot half to T_es ##############################
fix 3 mobile npt temp 5000 $T $(100.0*dt) z $P $P $(1000.0*dt)
fix 3 mobile npt temp 5000 3600 $(100.0*dt) z $P $P $(1000.0*dt)
fix 3 mobile npt temp 5000 3600 0.050000000000000002776 z $P $P $(1000.0*dt)
fix 3 mobile npt temp 5000 3600 0.050000000000000002776 z 600000 $P $(1000.0*dt)
fix 3 mobile npt temp 5000 3600 0.050000000000000002776 z 600000 600000 $(1000.0*dt)
fix 3 mobile npt temp 5000 3600 0.050000000000000002776 z 600000 600000 0.5
dump 3 all custom 1000 3coolhalf.bin id type x y z vx vy vz
run  1000000
Step          Temp          Press           CPU            Pxx            Pyy            Pzz            Pxy            Pxz            Pyz           KinEng         PotEng         TotEng         Volume           Lx             Ly             Lz          Atoms
2000000   4966.5546      607313.6       0              608543.29      611734.58      601662.93     -2035.1216      800.54541      865.46234      10270.999      19036.022      29307.021      143944.12      41.45412       41.45412       83.764212          16000
Averages over the last 501 of 1001 rows, steps 2500000 to 3000000:
Temp Press Pxx Pyy Pzz Pxy Pxz Pyz KinEng PotEng TotEng Volume Lx Ly Lz Atoms
3950.01 597271 596731 594855 600226 -1148.4 2030.08 443.665 8168.76 17178.6 25347.4 141944 41.4541 41.4541 82.6003 16000
Loop time of 7277.38 on 8 procs for 1000000 steps with 16000 atoms

unfix 3
undump 3

#################### Whole system relax in the nph ensemble at P ######################
fix 4 all nph iso $P $P $(1000.0*dt)
fix 4 all nph iso 600000 $P $(1000.0*dt)
fix 4 all nph iso 600000 600000 $(1000.0*dt)
fix 4 all nph iso 600000 600000 0.5
dump 4 all custom 1000 4nph.bin id type x y z vx vy vz
run 1000000
Step          Temp          Press           CPU            Pxx            Pyy            Pzz            Pxy            Pxz            Pyz           KinEng         PotEng         TotEng         Volume           Lx             Ly             Lz          Atoms
3000000   3611.9188      599506.42      0              595276.45      594354.07      608888.74     -1546.6861      3838.8015     -1298.1045      7469.5676      15817.506      23287.074      141097.88      41.45412       41.45412       82.107923          16000
Averages over the last 501 of 1001 rows, steps 3500000 to 4000000:
Temp Press Pxx Pyy Pzz Pxy Pxz Pyz KinEng PotEng TotEng Volume Lx Ly Lz Atoms
3606.39 600234 600774 600917 599011 17.4701 99.4658 78.0872 7458.13 15691.4 23149.6 140570 41.4024 41.4024 82.0054 16000
Loop time of 7212.3 on 8 procs for 1000000 steps with 16000 atoms
