atom_style atomic
units metal
boundary p p p
#atom_modify sort 0 0.0
newton on

read_data data.lammps
Reading data file ...
  triclinic box = (0 0 0) to (4.3790145 4.3790145 4.3790145) with tilt (-0 0 0)
  reading atoms ...
  8 atoms
replicate 10 10 20
Replicating atoms ...
  triclinic box = (0 0 0) to (43.790145 43.790145 87.58029) with tilt (-0 0 0)
  16000 atoms
  replicate CPU = 0.021 seconds

### interactions

pair_style flare
pair_coeff * * lmp.flare
Reading potential file lmp.flare with DATE: Thu

# compute unc all flare/std/atom L_inv_lmp.flare sparse_desc_lmp.flare
# compute MaxUnc all reduce max c_unc

mass 1 12.011000
mass 2 28.085000

thermo_style custom step temp press cpu pxx pyy pzz pxy pxz pyz ke pe etotal vol lx ly lz atoms    #c_MaxUnc
thermo 1000
timestep 0.0005
restart 100000 restart_*.dat

#################### Equilibrate at P and T_es ##############################
velocity all create $T 41928459 rot yes dist gaussian
velocity all create 2800 41928459 rot yes dist gaussian
fix mom all momentum 1000 linear 1 1 1 angular

fix 1 all npt temp $T $T $(100.0*dt) iso $P $P $(1000.0*dt)
fix 1 all npt temp 2800 $T $(100.0*dt) iso $P $P $(1000.0*dt)
fix 1 all npt temp 2800 2800 $(100.0*dt) iso $P $P $(1000.0*dt)
fix 1 all npt temp 2800 2800 0.050000000000000002776 iso $P $P $(1000.0*dt)
fix 1 all npt temp 2800 2800 0.050000000000000002776 iso 300000 $P $(1000.0*dt)
fix 1 all npt temp 2800 2800 0.050000000000000002776 iso 300000 300000 $(1000.0*dt)
fix 1 all npt temp 2800 2800 0.050000000000000002776 iso 300000 300000 0.5
dump 1 all custom 1000 1equil.bin id type x y z vx vy vz
run   10000 # report performance
  update every 1 steps, delay 10 steps, check yes
Step          Temp          Press           CPU            Pxx            Pyy            Pzz            Pxy            Pxz            Pyz           KinEng         PotEng         TotEng         Volume           Lx             Ly             Lz          Atoms
0   2800           55537.333      0              55258.481      55664.454      55689.064     -388.53912      174.99747     -439.29551      5790.4926     -4109.4047      1681.0878      167941.93      43.790145      43.790145      87.58029           16000
Averages over the last 6 of 11 rows, steps 5000 to 10000:
Temp Press Pxx Pyy Pzz Pxy Pxz Pyz KinEng PotEng TotEng Volume Lx Ly Lz Atoms
2802.71 299855 300011 299714 299840 22.8858 -1201.52 -1324.94 5796.1 3026.13 8822.24 154905 42.6263 42.6263 85.2527 16000
Loop time of 63.8738 on 8 procs for 10000 steps with 16000 atoms

run  990000
Step          Temp          Press           CPU            Pxx            Pyy            Pzz            Pxy            Pxz            Pyz           KinEng         PotEng         TotEng         Volume           Lx             Ly             Lz          Atoms
10000   2824.1573      302723.08      0              304083.26      301051.46      303034.51      308.32134     -1403.7781      1178.0381      5840.4506      3093.9551      8934.4057      154766.15      42.613643      42.613643      85.227286          16000
Averages over the last 496 of 991 rows, steps 505000 to 1000000:
Temp Press Pxx Pyy Pzz Pxy Pxz Pyz KinEng PotEng TotEng Volume Lx Ly Lz Atoms
2801.15 300000 300014 299982 300004 64.4334 160.265 -48.5392 5792.86 3028.82 8821.68 154885 42.6245 42.6245 85.2491 16000
Loop time of 6315.49 on 8 procs for 990000 steps with 16000 atoms

unfix 1
undump 1

#################### Fix half atoms along z-axis, heat the other half #################
region middle block INF INF INF INF 22.0 66.0
group mobile region middle
8216 atoms in group mobile
fix 2 mobile npt temp $T 5000 $(100.0*dt) z $P $P $(1000.0*dt)
fix 2 mobile npt temp 2800 5000 $(100.0*dt) z $P $P $(1000.0*dt)
fix 2 mobile npt temp 2800 5000 0.050000000000000002776 z $P $P $(1000.0*dt)
fix 2 mobile npt temp 2800 5000 0.050000000000000002776 z 300000 $P $(1000.0*dt)
fix 2 mobile npt temp 2800 5000 0.050000000000000002776 z 300000 300000 $(1000.0*dt)
fix 2 mobile npt temp 2800 5000 0.050000000000000002776 z 300000 300000 0.5
dump 2 all custom 1000 2heathalf.bin id type x y z vx vy vz
run  1000000
Step          Temp          Press           CPU            Pxx            Pyy            Pzz            Pxy            Pxz            Pyz           KinEng         PotEng         TotEng         Volume           Lx             Ly             Lz          Atoms
1000000   2789.9946      296539.99      0              297196.72      296195.29      296227.96      256.53868      92.980704     -775.99609      5769.801       3015.4197      8785.2207      155034.41      42.63825       42.63825       85.2765            16000
Averages over the last 501 of 1001 rows, steps 1500000 to 2000000:
Temp Press Pxx Pyy Pzz Pxy Pxz Pyz KinEng PotEng TotEng Volume Lx Ly Lz Atoms
4448.63 321365 332462 331761 299873 -345.866 -507.218 101.508 9199.92 14805.3 24005.2 159547 42.6382 42.6382 87.7585 16000
Loop time of 6336.43 on 8 procs for 1000000 steps with 16000 atoms

unfix 2
undump 2

#################### Cool down the hot half to T_es ##############################
fix 3 mobile npt temp 5000 $T $(100.0*dt) z $P $P $(1000.0*dt)
fix 3 mobile npt temp 5000 2800 $(100.0*dt) z $P $P $(1000.0*dt)
fix 3 mobile npt temp 5000 2800 0.050000000000000002776 z $P $P $(1000.0*dt)
fix 3 mobile npt temp 5000 2800 0.050000000000000002776 z 300000 $P $(1000.0*dt)
fix 3 mobile npt temp 5000 2800 0.050000000000000002776 z 300000 300000 $(1000.0*dt)
fix 3 mobile npt temp 5000 2800 0.050000000000000002776 z 300000 300000 0.5
dump 3 all custom 1000 3coolhalf.bin id type x y z vx vy vz
run  1000000
Step          Temp          Press           CPU            Pxx            Pyy            Pzz            Pxy            Pxz            Pyz           KinEng         PotEng         TotEng         Volume           Lx             Ly             Lz          Atoms
2000000   5017.0317      326734.1       0              341053.7       341469.38      297679.21      1275.0242     -3774.8319      2776.4714      10375.387      15445.364      25820.752      160783         42.63825       42.63825       88.438504          16000
Averages over the last 501 of 1001 rows, steps 2500000 to 3000000:
Temp Press Pxx Pyy Pzz Pxy Pxz Pyz KinEng PotEng TotEng Volume Lx Ly Lz Atoms
3350.48 308194 312565 312113 299903 -467.359 -292.469 23.0337 6928.89 10869.6 17798.5 156807 42.6382 42.6382 86.2513 16000
Loop time of 6441.38 on 8 procs for 1000000 steps with 16000 atoms

unfix 3
undump 3

#################### Whole system relax in the nph ensemble at P ######################
fix 4 all nph iso $P $P $(1000.0*dt)
fix 4 all nph iso 300000 $P $(1000.0*dt)
fix 4 all nph iso 300000 300000 $(1000.0*dt)
fix 4 all nph iso 300000 300000 0.5
dump 4 all custom 1000 4nph.bin id type x y z vx vy vz
run 1000000
Step          Temp          Press           CPU            Pxx            Pyy            Pzz            Pxy            Pxz            Pyz           KinEng         PotEng         TotEng         Volume           Lx             Ly             Lz          Atoms
3000000   2785.6821      302665.02      0              303078.12      302423.51      302493.42     -792.1926      -472.95554      368.69871      5760.8827      4005.9476      9766.8303      155062.06      42.63825       42.63825       85.291707          16000
Averages over the last 501 of 1001 rows, steps 3500000 to 4000000:
Temp Press Pxx Pyy Pzz Pxy Pxz Pyz KinEng PotEng TotEng Volume Lx Ly Lz Atoms
2760.73 299938 299869 299756 300188 -80.141 -530.524 -120.623 5709.29 3779.58 9488.87 155080 42.6399 42.6399 85.2949 16000
Loop time of 7160.04 on 8 procs for 1000000 steps with 16000 atoms
