atom_style atomic
units metal
boundary p p p
#atom_modify sort 0 0.0
newton on

read_data data.lammps
Reading data file ...
  orthogonal box = (0 0 0) to (43.790145 43.790145 87.58029)
  reading atoms ...
  16040 atoms
# replicate 10 10 20

### interactions

pair_style flare
pair_coeff * * lmp.flare
Reading potential file lmp.flare with DATE: Thu

# compute unc all flare/std/atom L_inv_lmp.flare sparse_desc_lmp.flare
# compute MaxUnc all reduce max c_unc

mass 1 12.011000
mass 2 28.085000

thermo_style custom step temp press cpu pxx pyy pzz pxy pxz pyz ke pe etotal vol lx ly lz atoms    #c_MaxUnc
thermo 1000
timestep 0.0005
restart 100000 restart_*.dat

#################### Equilibrate at P and T_es ##############################
velocity all create $T 41928459 rot yes dist gaussian
velocity all create 3400 41928459 rot yes dist gaussian
fix mom all momentum 1000 linear 1 1 1 angular

fix 1 all npt temp $T $T $(100.0*dt) iso $P $P $(1000.0*dt)
fix 1 all npt temp 3400 $T $(100.0*dt) iso $P $P $(1000.0*dt)
fix 1 all npt temp 3400 3400 $(100.0*dt) iso $P $P $(1000.0*dt)
fix 1 all npt temp 3400 3400 0.050000000000000002776 iso $P $P $(1000.0*dt)
fix 1 all npt temp 3400 3400 0.050000000000000002776 iso 300000 $P $(1000.0*dt)
fix 1 all npt temp 3400 3400 0.050000000000000002776 iso 300000 300000 $(1000.0*dt)
fix 1 all npt temp 3400 3400 0.050000000000000002776 iso 300000 300000 0.5
dump 1 all custom 1000 1equil.bin id type x y z vx vy vz
run   10000 # report performance
  update every 1 steps, delay 10 steps, check yes
Step          Temp          Press           CPU            Pxx            Pyy            Pzz            Pxy            Pxz            Pyz           KinEng         PotEng         TotEng         Volume           Lx             Ly             Lz          Atoms
0   3400           79264.947      0              79901.728      78805.53       79087.584      1130.3329     -219.77229     -813.23023      7048.8918     -2985.8921      4062.9997      167941.93      43.790145      43.790145      87.58029           16040
Averages over the last 6 of 11 rows, steps 5000 to 10000:
Temp Press Pxx Pyy Pzz Pxy Pxz Pyz KinEng PotEng TotEng Volume Lx Ly Lz Atoms
3391 299863 299473 300365 299751 877.139 357.561 544.13 7030.23 4964.37 11994.6 156670 42.7876 42.7876 85.5753 16040
Loop time of 64.2232 on 8 procs for 10000 steps with 16040 atoms

run  990000
Step          Temp          Press           CPU            Pxx            Pyy            Pzz            Pxy            Pxz            Pyz           KinEng         PotEng         TotEng         Volume           Lx             Ly             Lz          Atoms
10000   3376.5502      294745.86      0              293691.04      295114.32      295432.23     -599.33976     -1821.7411      1365.2449      7000.2755      4904.7498      11905.025      156887.49      42.807458      42.807458      85.614915          16040
Averages over the last 496 of 991 rows, steps 505000 to 1000000:
Temp Press Pxx Pyy Pzz Pxy Pxz Pyz KinEng PotEng TotEng Volume Lx Ly Lz Atoms
3400.29 299827 299780 299887 299815 90.7391 -198.707 63.3189 7049.5 4659.53 11709 156400 42.763 42.763 85.5261 16040
Loop time of 6356.78 on 8 procs for 990000 steps with 16040 atoms

unfix 1
undump 1

#################### Fix half atoms along z-axis, heat the other half #################
region middle block INF INF INF INF 22.0 66.0
group mobile region middle
8231 atoms in group mobile
fix 2 mobile npt temp $T 5000 $(100.0*dt) z $P $P $(1000.0*dt)
fix 2 mobile npt temp 3400 5000 $(100.0*dt) z $P $P $(1000.0*dt)
fix 2 mobile npt temp 3400 5000 0.050000000000000002776 z $P $P $(1000.0*dt)
fix 2 mobile npt temp 3400 5000 0.050000000000000002776 z 300000 $P $(1000.0*dt)
fix 2 mobile npt temp 3400 5000 0.050000000000000002776 z 300000 300000 $(1000.0*dt)
fix 2 mobile npt temp 3400 5000 0.050000000000000002776 z 300000 300000 0.5
dump 2 all custom 1000 2heathalf.bin id type x y z vx vy vz
run  1000000
Step          Temp          Press           CPU            Pxx            Pyy            Pzz            Pxy            Pxz            Pyz           KinEng         PotEng         TotEng         Volume           Lx             Ly             Lz          Atoms
1000000   3410.8262      298086.22      0              298691.01      297682.93      297884.71      865.23237      3589.5246      1038.7355      7071.3367      4655.755       11727.092      156543.25      42.776126      42.776126      85.552251          16040
Averages over the last 501 of 1001 rows, steps 1500000 to 2000000:
Temp Press Pxx Pyy Pzz Pxy Pxz Pyz KinEng PotEng TotEng Volume Lx Ly Lz Atoms
4598.97 317650 326561 326266 300124 168.776 2756.18 490.787 9534.61 15413.5 24948.1 160461 42.7761 42.7761 87.6933 16040
Loop time of 6892.15 on 8 procs for 1000000 steps with 16040 atoms

unfix 2
undump 2

#################### Cool down the hot half to T_es ##############################
fix 3 mobile npt temp 5000 $T $(100.0*dt) z $P $P $(1000.0*dt)
fix 3 mobile npt temp 5000 3400 $(100.0*dt) z $P $P $(1000.0*dt)
fix 3 mobile npt temp 5000 3400 0.050000000000000002776 z $P $P $(1000.0*dt)
fix 3 mobile npt temp 5000 3400 0.050000000000000002776 z 300000 $P $(1000.0*dt)
fix 3 mobile npt temp 5000 3400 0.050000000000000002776 z 300000 300000 $(1000.0*dt)
fix 3 mobile npt temp 5000 3400 0.050000000000000002776 z 300000 300000 0.5
dump 3 all custom 1000 3coolhalf.bin id type x y z vx vy vz
run  1000000
Step          Temp          Press           CPU            Pxx            Pyy            Pzz            Pxy            Pxz            Pyz           KinEng         PotEng         TotEng         Volume           Lx             Ly             Lz          Atoms
2000000   5033.841       321970.03      0              332910.22      332854.28      300145.58      246.6898       3512.3322     -96.053082      10436.177      15956.605      26392.782      161357.77      42.776126      42.776126      88.18343           16040
Averages over the last 501 of 1001 rows, steps 2500000 to 3000000:
Temp Press Pxx Pyy Pzz Pxy Pxz Pyz KinEng PotEng TotEng Volume Lx Ly Lz Atoms
3800.25 308656 313174 312835 299959 45.9269 3107.61 442.191 7878.69 13580.6 21459.2 158483 42.7761 42.7761 86.6121 16040
Loop time of 7242.78 on 8 procs for 1000000 steps with 16040 atoms

unfix 3
undump 3

#################### Whole system relax in the nph ensemble at P ######################
fix 4 all nph iso $P $P $(1000.0*dt)
fix 4 all nph iso 300000 $P $(1000.0*dt)
fix 4 all nph iso 300000 300000 $(1000.0*dt)
fix 4 all nph iso 300000 300000 0.5
dump 4 all custom 1000 4nph.bin id type x y z vx vy vz
run 1000000
Step          Temp          Press           CPU            Pxx            Pyy            Pzz            Pxy            Pxz            Pyz           KinEng         PotEng         TotEng         Volume           Lx             Ly             Lz          Atoms
3000000   3393.6581      301139.52      0              301034.78      301504.55      300879.23      567.81087      4758.6485     -4204.0718      7035.7438      9907.5978      16943.342      157234.76      42.776126      42.776126      85.93017           16040
Averages over the last 501 of 1001 rows, steps 3500000 to 4000000:
Temp Press Pxx Pyy Pzz Pxy Pxz Pyz KinEng PotEng TotEng Volume Lx Ly Lz Atoms
3611.2 299898 298836 298895 301962 -118.935 -17.2963 47.0018 7486.75 9012.23 16499 157861 42.8328 42.8328 86.0441 16040
Loop time of 7280.96 on 8 procs for 1000000 steps with 16040 atoms
