atom_style atomic
units metal
boundary p p p
#atom_modify sort 0 0.0
newton on

read_data data.lammps
Reading data file ...
  orthogonal box = (0 0 0) to (43.790145 43.790145 87.58029)
  reading atoms ...
  16040 atoms
# replicate 10 10 20

### interactions

pair_style flare
pair_coeff * * lmp.flare
Reading potential file lmp.flare with DATE: Thu

# compute unc all flare/std/atom L_inv_lmp.flare sparse_desc_lmp.flare
# compute MaxUnc all reduce max c_unc

mass 1 12.011000
mass 2 28.085000

thermo_style custom step temp press cpu pxx pyy pzz pxy pxz pyz ke pe etotal vol lx ly lz atoms    #c_MaxUnc
thermo 1000
timestep 0.0005
restart 100000 restart_*.dat

#################### Equilibrate at P and T_es ##############################
velocity all create $T 41928459 rot yes dist gaussian
velocity all create 3800 41928459 rot yes dist gaussian
fix mom all momentum 1000 linear 1 1 1 angular

fix 1 all npt temp $T $T $(100.0*dt) iso $P $P $(1000.0*dt)
fix 1 all npt temp 3800 $T $(100.0*dt) iso $P $P $(1000.0*dt)
fix 1 all npt temp 3800 3800 $(100.0*dt) iso $P $P $(1000.0*dt)
fix 1 all npt temp 3800 3800 0.050000000000000002776 iso $P $P $(1000.0*dt)
fix 1 all npt temp 3800 3800 0.050000000000000002776 iso 100000 $P $(1000.0*dt)
fix 1 all npt temp 3800 3800 0.050000000000000002776 iso 100000 100000 $(1000.0*dt)
fix 1 all npt temp 3800 3800 0.050000000000000002776 iso 100000 100000 0.5
dump 1 all custom 1000 1equil.bin id type x y z vx vy vz
run   10000 # report performance
  update every 1 steps, delay 10 steps, check yes
Step          Temp          Press           CPU            Pxx            Pyy            Pzz            Pxy            Pxz            Pyz           KinEng         PotEng         TotEng         Volume           Lx             Ly             Lz          Atoms
0   3800           84539.211      0              85134.427      84099.503      84383.704      1075.1264     -195.07342     -877.12361      7878.1732     -2985.8921      4892.2811      167941.93      43.790145      43.790145      87.58029           16040
Averages over the last 6 of 11 rows, steps 5000 to 10000:
Temp Press Pxx Pyy Pzz Pxy Pxz Pyz KinEng PotEng TotEng Volume Lx Ly Lz Atoms
3802.9 101307 101762 100867 101293 -491.452 -141.815 -449.415 7884.19 5499.28 13383.5 172543 44.1865 44.1865 88.3729 16040
Loop time of 63.2683 on 8 procs for 10000 steps with 16040 atoms

run  990000
Step          Temp          Press           CPU            Pxx            Pyy            Pzz            Pxy            Pxz            Pyz           KinEng         PotEng         TotEng         Volume           Lx             Ly             Lz          Atoms
10000   3827.4511      104803.6       0              106243.29      104514.43      103653.09     -296.30226      1265.925      -4.6926193      7935.0849      5454.6339      13389.719      172230.36      44.159747      44.159747      88.319493          16040
Averages over the last 496 of 991 rows, steps 505000 to 1000000:
Temp Press Pxx Pyy Pzz Pxy Pxz Pyz KinEng PotEng TotEng Volume Lx Ly Lz Atoms
3801.75 100120 100192 100071 100097 -101.962 24.1038 -118.57 7881.8 5189.59 13071.4 172234 44.16 44.16 88.3201 16040
Loop time of 6251.02 on 8 procs for 990000 steps with 16040 atoms

unfix 1
undump 1

#################### Fix half atoms along z-axis, heat the other half #################
region middle block INF INF INF INF 22.0 66.0
group mobile region middle
7981 atoms in group mobile
fix 2 mobile npt temp $T 5000 $(100.0*dt) z $P $P $(1000.0*dt)
fix 2 mobile npt temp 3800 5000 $(100.0*dt) z $P $P $(1000.0*dt)
fix 2 mobile npt temp 3800 5000 0.050000000000000002776 z $P $P $(1000.0*dt)
fix 2 mobile npt temp 3800 5000 0.050000000000000002776 z 100000 $P $(1000.0*dt)
fix 2 mobile npt temp 3800 5000 0.050000000000000002776 z 100000 100000 $(1000.0*dt)
fix 2 mobile npt temp 3800 5000 0.050000000000000002776 z 100000 100000 0.5
dump 2 all custom 1000 2heathalf.bin id type x y z vx vy vz
run  1000000
Step          Temp          Press           CPU            Pxx            Pyy            Pzz            Pxy            Pxz            Pyz           KinEng         PotEng         TotEng         Volume           Lx             Ly             Lz          Atoms
1000000   3815.8612      102846.62      0              102770.17      102622.24      103147.44     -207.44714     -718.02786      938.62601      7911.0566      5266.6356      13177.692      172027.2       44.142376      44.142376      88.284753          16040
Averages over the last 501 of 1001 rows, steps 1500000 to 2000000:
Temp Press Pxx Pyy Pzz Pxy Pxz Pyz KinEng PotEng TotEng Volume Lx Ly Lz Atoms
4699.58 127067 141092 140016 100094 633.232 -264.721 -81.2329 9743.18 14933.6 24676.8 179386 44.1424 44.1424 92.0614 16040
Loop time of 6232.08 on 8 procs for 1000000 steps with 16040 atoms

unfix 2
undump 2

#################### Cool down the hot half to T_es ##############################
fix 3 mobile npt temp 5000 $T $(100.0*dt) z $P $P $(1000.0*dt)
fix 3 mobile npt temp 5000 3800 $(100.0*dt) z $P $P $(1000.0*dt)
fix 3 mobile npt temp 5000 3800 0.050000000000000002776 z $P $P $(1000.0*dt)
fix 3 mobile npt temp 5000 3800 0.050000000000000002776 z 100000 $P $(1000.0*dt)
fix 3 mobile npt temp 5000 3800 0.050000000000000002776 z 100000 100000 $(1000.0*dt)
fix 3 mobile npt temp 5000 3800 0.050000000000000002776 z 100000 100000 0.5
dump 3 all custom 1000 3coolhalf.bin id type x y z vx vy vz
run  1000000
Step          Temp          Press           CPU            Pxx            Pyy            Pzz            Pxy            Pxz            Pyz           KinEng         PotEng         TotEng         Volume           Lx             Ly             Lz          Atoms
2000000   5030.4668      126726.01      0              146417.32      140919.17      92841.545      1460.1955     -541.26843     -1203.768       10429.181      15338.136      25767.317      180364.13      44.142376      44.142376      92.563284          16040
Averages over the last 501 of 1001 rows, steps 2500000 to 3000000:
Temp Press Pxx Pyy Pzz Pxy Pxz Pyz KinEng PotEng TotEng Volume Lx Ly Lz Atoms
4099.06 120514 131330 130082 100129 334.382 -142.041 -33.5401 8498.19 13795.1 22293.3 177677 44.1424 44.1424 91.1841 16040
Loop time of 6274.04 on 8 procs for 1000000 steps with 16040 atoms

unfix 3
undump 3

#################### Whole system relax in the nph ensemble at P ######################
fix 4 all nph iso $P $P $(1000.0*dt)
fix 4 all nph iso 100000 $P $(1000.0*dt)
fix 4 all nph iso 100000 100000 $(1000.0*dt)
fix 4 all nph iso 100000 100000 0.5
dump 4 all custom 1000 4nph.bin id type x y z vx vy vz
run 1000000
Step          Temp          Press           CPU            Pxx            Pyy            Pzz            Pxy            Pxz            Pyz           KinEng         PotEng         TotEng         Volume           Lx             Ly             Lz          Atoms
3000000   3777.6536      114718.48      0              123130.57      122882.55      98142.311     -302.48666     -365.36141     -1624.9076      7831.8445      12903.151      20734.996      176743.85      44.142376      44.142376      90.705346          16040
Averages over the last 501 of 1001 rows, steps 3500000 to 4000000:
Temp Press Pxx Pyy Pzz Pxy Pxz Pyz KinEng PotEng TotEng Volume Lx Ly Lz Atoms
3333.79 100048 95199.8 101775 103169 -14.401 -31.8096 -92.6357 6911.62 12498.1 19409.8 192978 45.4543 45.4543 93.4012 16040
Loop time of 6850.1 on 8 procs for 1000000 steps with 16040 atoms
