atom_style atomic
units metal
boundary p p p
#atom_modify sort 0 0.0
newton on

read_data data.lammps
Reading data file ...
  orthogonal box = (0 0 0) to (43.790145 43.790145 87.58029)
  reading atoms ...
  16040 atoms
# replicate 10 10 20

### interactions

pair_style flare
pair_coeff * * lmp.flare
Reading potential file lmp.flare with DATE: Thu

# compute unc all flare/std/atom L_inv_lmp.flare sparse_desc_lmp.flare
# compute MaxUnc all reduce max c_unc

mass 1 12.011000
mass 2 28.085000

thermo_style custom step temp press cpu pxx pyy pzz pxy pxz pyz ke pe etotal vol lx ly lz atoms    #c_MaxUnc
thermo 1000
timestep 0.0005
restart 100000 restart_*.dat

#################### Equilibrate at P and T_es ##############################
velocity all create $T 41928459 rot yes dist gaussian
velocity all create 3600 41928459 rot yes dist gaussian
fix mom all momentum 1000 linear 1 1 1 angular

fix 1 all npt temp $T $T $(100.0*dt) iso $P $P $(1000.0*dt)
fix 1 all npt temp 3600 $T $(100.0*dt) iso $P $P $(1000.0*dt)
fix 1 all npt temp 3600 3600 $(100.0*dt) iso $P $P $(1000.0*dt)
fix 1 all npt temp 3600 3600 0.050000000000000002776 iso $P $P $(1000.0*dt)
fix 1 all npt temp 3600 3600 0.050000000000000002776 iso 600000 $P $(1000.0*dt)
fix 1 all npt temp 3600 3600 0.050000000000000002776 iso 600000 600000 $(1000.0*dt)
fix 1 all npt temp 3600 3600 0.050000000000000002776 iso 600000 600000 0.5
dump 1 all custom 1000 1equil.bin id type x y z vx vy vz
run   10000 # report performance
  update every 1 steps, delay 10 steps, check yes
Step          Temp          Press           CPU            Pxx            Pyy            Pzz            Pxy            Pxz            Pyz           KinEng         PotEng         TotEng         Volume           Lx             Ly             Lz          Atoms
0   3600           81902.079      0              82518.078      81452.516      81735.644      1102.7296     -207.42286     -845.17692      7463.5325     -2985.8921      4477.6404      167941.93      43.790145      43.790145      87.58029           16040
Averages over the last 6 of 11 rows, steps 5000 to 10000:
Temp Press Pxx Pyy Pzz Pxy Pxz Pyz KinEng PotEng TotEng Volume Lx Ly Lz Atoms
3606.57 599709 599920 599565 599642 847.05 -184.715 775.78 7477.16 8246.24 15723.4 142555 41.4621 41.4621 82.9242 16040
Loop time of 74.6055 on 8 procs for 10000 steps with 16040 atoms

run  990000
Step          Temp          Press           CPU            Pxx            Pyy            Pzz            Pxy            Pxz            Pyz           KinEng         PotEng         TotEng         Volume           Lx             Ly             Lz          Atoms
10000   3614.6714      597386.76      0              597231.09      596968.16      597961.04      1423.558      -1068.8803     -843.1869       7493.9492      8208.5594      15702.509      142603.51      41.466757      41.466757      82.933513          16040
Averages over the last 496 of 991 rows, steps 505000 to 1000000:
Temp Press Pxx Pyy Pzz Pxy Pxz Pyz KinEng PotEng TotEng Volume Lx Ly Lz Atoms
3599 599883 599844 599844 599960 170.712 -96.8252 -86.8891 7461.45 7883.86 15345.3 142501 41.4568 41.4568 82.9137 16040
Loop time of 7423.72 on 8 procs for 990000 steps with 16040 atoms

unfix 1
undump 1

#################### Fix half atoms along z-axis, heat the other half #################
region middle block INF INF INF INF 22.0 66.0
group mobile region middle
8538 atoms in group mobile
fix 2 mobile npt temp $T 5000 $(100.0*dt) z $P $P $(1000.0*dt)
fix 2 mobile npt temp 3600 5000 $(100.0*dt) z $P $P $(1000.0*dt)
fix 2 mobile npt temp 3600 5000 0.050000000000000002776 z $P $P $(1000.0*dt)
fix 2 mobile npt temp 3600 5000 0.050000000000000002776 z 600000 $P $(1000.0*dt)
fix 2 mobile npt temp 3600 5000 0.050000000000000002776 z 600000 600000 $(1000.0*dt)
fix 2 mobile npt temp 3600 5000 0.050000000000000002776 z 600000 600000 0.5
dump 2 all custom 1000 2heathalf.bin id type x y z vx vy vz
run  1000000
Step          Temp          Press           CPU            Pxx            Pyy            Pzz            Pxy            Pxz            Pyz           KinEng         PotEng         TotEng         Volume           Lx             Ly             Lz          Atoms
1000000   3634.2957      595565.13      0              593709.71      595146.63      597839.04      1223.8247     -1423.1769     -3027.7009      7534.6345      7886.9791      15421.614      142713.52      41.477418      41.477418      82.954835          16040
Averages over the last 501 of 1001 rows, steps 1500000 to 2000000:
Temp Press Pxx Pyy Pzz Pxy Pxz Pyz KinEng PotEng TotEng Volume Lx Ly Lz Atoms
4648.68 601452 601615 602351 600389 -1505.55 -2698.84 -49.0025 9637.65 18670.4 28308.1 143527 41.4774 41.4774 83.4275 16040
Loop time of 7486.32 on 8 procs for 1000000 steps with 16040 atoms

unfix 2
undump 2

#################### Cool down the hot half to T_es ##############################
fix 3 mobile npt temp 5000 $T $(100.0*dt) z $P $P $(1000.0*dt)
fix 3 mobile npt temp 5000 3600 $(100.0*dt) z $P $P $(1000.0*dt)
fix 3 mobile npt temp 5000 3600 0.050000000000000002776 z $P $P $(1000.0*dt)
fix 3 mobile npt temp 5000 3600 0.050000000000000002776 z 600000 $P $(1000.0*dt)
fix 3 mobile npt temp 5000 3600 0.050000000000000002776 z 600000 600000 $(1000.0*dt)
fix 3 mobile npt temp 5000 3600 0.050000000000000002776 z 600000 600000 0.5
dump 3 all custom 1000 3coolhalf.bin id type x y z vx vy vz
run  1000000
Step          Temp          Press           CPU            Pxx            Pyy            Pzz            Pxy            Pxz            Pyz           KinEng         PotEng         TotEng         Volume           Lx             Ly             Lz          Atoms
2000000   5024.3642      608377.15      0              607962.07      612409.15      604760.23     -4150.5308     -1014.059      -479.99879      10416.529      19139.946      29556.475      143978.83      41.477418      41.477418      83.690317          16040
Averages over the last 501 of 1001 rows, steps 2500000 to 3000000:
Temp Press Pxx Pyy Pzz Pxy Pxz Pyz KinEng PotEng TotEng Volume Lx Ly Lz Atoms
3949.84 595288 592497 593270 600097 -1349.56 -2973.05 -65.2745 8188.82 17254.4 25443.2 142157 41.4774 41.4774 82.6316 16040
Loop time of 7499.23 on 8 procs for 1000000 steps with 16040 atoms

unfix 3
undump 3

#################### Whole system relax in the nph ensemble at P ######################
fix 4 all nph iso $P $P $(1000.0*dt)
fix 4 all nph iso 600000 $P $(1000.0*dt)
fix 4 all nph iso 600000 600000 $(1000.0*dt)
fix 4 all nph iso 600000 600000 0.5
dump 4 all custom 1000 4nph.bin id type x y z vx vy vz
run 1000000
Step          Temp          Press           CPU            Pxx            Pyy            Pzz            Pxy            Pxz            Pyz           KinEng         PotEng         TotEng         Volume           Lx             Ly             Lz          Atoms
3000000   3600.5248      590978.28      0              590369.5       585993.61      596571.73     -1341.2485      269.12182     -2635.7889      7464.6205      15510.61       22975.231      141570.61      41.477418      41.477418      82.290497          16040
Averages over the last 501 of 1001 rows, steps 3500000 to 4000000:
Temp Press Pxx Pyy Pzz Pxy Pxz Pyz KinEng PotEng TotEng Volume Lx Ly Lz Atoms
3603.48 600030 600883 600666 598541 -78.9563 -55.8878 -71.9426 7470.74 15402.4 22873.2 140889 41.4107 41.4107 82.1582 16040
Loop time of 7520.87 on 8 procs for 1000000 steps with 16040 atoms
