atom_style atomic
units metal
boundary p p p
#atom_modify sort 0 0.0
newton on

read_data data.lammps
Reading data file ...
  orthogonal box = (0 0 0) to (43.790145 43.790145 87.58029)
  reading atoms ...
  16040 atoms
# replicate 10 10 20

### interactions

pair_style flare
pair_coeff * * lmp.flare
Reading potential file lmp.flare with DATE: Thu

# compute unc all flare/std/atom L_inv_lmp.flare sparse_desc_lmp.flare
# compute MaxUnc all reduce max c_unc

mass 1 12.011000
mass 2 28.085000

thermo_style custom step temp press cpu pxx pyy pzz pxy pxz pyz ke pe etotal vol lx ly lz atoms    #c_MaxUnc
thermo 1000
timestep 0.0005
restart 100000 restart_*.dat

#################### Equilibrate at P and T_es ##############################
velocity all create $T 41928459 rot yes dist gaussian
velocity all create 3200 41928459 rot yes dist gaussian
fix mom all momentum 1000 linear 1 1 1 angular

fix 1 all npt temp $T $T $(100.0*dt) iso $P $P $(1000.0*dt)
fix 1 all npt temp 3200 $T $(100.0*dt) iso $P $P $(1000.0*dt)
fix 1 all npt temp 3200 3200 $(100.0*dt) iso $P $P $(1000.0*dt)
fix 1 all npt temp 3200 3200 0.050000000000000002776 iso $P $P $(1000.0*dt)
fix 1 all npt temp 3200 3200 0.050000000000000002776 iso 100000 $P $(1000.0*dt)
fix 1 all npt temp 3200 3200 0.050000000000000002776 iso 100000 100000 $(1000.0*dt)
fix 1 all npt temp 3200 3200 0.050000000000000002776 iso 100000 100000 0.5
dump 1 all custom 1000 1equil.bin id type x y z vx vy vz
run   10000 # report performance
  update every 1 steps, delay 10 steps, check yes
Step          Temp          Press           CPU            Pxx            Pyy            Pzz            Pxy            Pxz            Pyz           KinEng         PotEng         TotEng         Volume           Lx             Ly             Lz          Atoms
0   3200           76627.815      0              77285.378      76158.543      76439.524      1157.9361     -232.12173     -781.28355      6634.2511     -2985.8921      3648.359       167941.93      43.790145      43.790145      87.58029           16040
Averages over the last 6 of 11 rows, steps 5000 to 10000:
Temp Press Pxx Pyy Pzz Pxy Pxz Pyz KinEng PotEng TotEng Volume Lx Ly Lz Atoms
3190.92 97208.3 97238 96950 97436.7 30.832 -1324.58 -1112.97 6615.42 3762.97 10378.4 170803 44.0374 44.0374 88.0749 16040
Loop time of 66.7561 on 8 procs for 10000 steps with 16040 atoms

run  990000
Step          Temp          Press           CPU            Pxx            Pyy            Pzz            Pxy            Pxz            Pyz           KinEng         PotEng         TotEng         Volume           Lx             Ly             Lz          Atoms
10000   3183.3791      98757.05       0              98699.352      98335.445      99236.352     -2639.2689     -1890.6963     -1316.0924      6599.7926      3749.4263      10349.219      170688.16      44.027544      44.027544      88.055089          16040
Averages over the last 496 of 991 rows, steps 505000 to 1000000:
Temp Press Pxx Pyy Pzz Pxy Pxz Pyz KinEng PotEng TotEng Volume Lx Ly Lz Atoms
3201.03 100033 99983.2 100056 100058 26.732 -57.2276 11.0075 6636.39 3531.97 10168.4 170199 43.9854 43.9854 87.9709 16040
Loop time of 6609.14 on 8 procs for 990000 steps with 16040 atoms

unfix 1
undump 1

#################### Fix half atoms along z-axis, heat the other half #################
region middle block INF INF INF INF 22.0 66.0
group mobile region middle
8008 atoms in group mobile
fix 2 mobile npt temp $T 5000 $(100.0*dt) z $P $P $(1000.0*dt)
fix 2 mobile npt temp 3200 5000 $(100.0*dt) z $P $P $(1000.0*dt)
fix 2 mobile npt temp 3200 5000 0.050000000000000002776 z $P $P $(1000.0*dt)
fix 2 mobile npt temp 3200 5000 0.050000000000000002776 z 100000 $P $(1000.0*dt)
fix 2 mobile npt temp 3200 5000 0.050000000000000002776 z 100000 100000 $(1000.0*dt)
fix 2 mobile npt temp 3200 5000 0.050000000000000002776 z 100000 100000 0.5
dump 2 all custom 1000 2heathalf.bin id type x y z vx vy vz
run  1000000
Step          Temp          Press           CPU            Pxx            Pyy            Pzz            Pxy            Pxz            Pyz           KinEng         PotEng         TotEng         Volume           Lx             Ly             Lz          Atoms
1000000   3195.465       103659.04      0              103341.57      104108.18      103527.38     -1451.4104      274.70657      417.21863      6624.8491      3540.2225      10165.072      169868.21      43.956932      43.956932      87.913863          16040
Averages over the last 501 of 1001 rows, steps 1500000 to 2000000:
Temp Press Pxx Pyy Pzz Pxy Pxz Pyz KinEng PotEng TotEng Volume Lx Ly Lz Atoms
4551.34 133030 149626 149386 100077 1123.68 121.356 1913.48 9435.85 14353.9 23789.7 177855 43.9569 43.9569 92.0472 16040
Loop time of 6565.2 on 8 procs for 1000000 steps with 16040 atoms

unfix 2
undump 2

#################### Cool down the hot half to T_es ##############################
fix 3 mobile npt temp 5000 $T $(100.0*dt) z $P $P $(1000.0*dt)
fix 3 mobile npt temp 5000 3200 $(100.0*dt) z $P $P $(1000.0*dt)
fix 3 mobile npt temp 5000 3200 0.050000000000000002776 z $P $P $(1000.0*dt)
fix 3 mobile npt temp 5000 3200 0.050000000000000002776 z 100000 $P $(1000.0*dt)
fix 3 mobile npt temp 5000 3200 0.050000000000000002776 z 100000 100000 $(1000.0*dt)
fix 3 mobile npt temp 5000 3200 0.050000000000000002776 z 100000 100000 0.5
dump 3 all custom 1000 3coolhalf.bin id type x y z vx vy vz
run  1000000
Step          Temp          Press           CPU            Pxx            Pyy            Pzz            Pxy            Pxz            Pyz           KinEng         PotEng         TotEng         Volume           Lx             Ly             Lz          Atoms
2000000   4982.2439      135569.39      0              155928.01      154737.3       96042.875      2012.2623      1320.1492      2498.1396      10329.205      15031.467      25360.672      179417.2       43.956932      43.956932      92.855866          16040
Averages over the last 501 of 1001 rows, steps 2500000 to 3000000:
Temp Press Pxx Pyy Pzz Pxy Pxz Pyz KinEng PotEng TotEng Volume Lx Ly Lz Atoms
3648.23 122170 133076 133099 100334 351.31 165.97 1804.14 7563.52 12236.1 19799.7 175274 43.9569 43.9569 90.7118 16040
Loop time of 6529.8 on 8 procs for 1000000 steps with 16040 atoms

unfix 3
undump 3

#################### Whole system relax in the nph ensemble at P ######################
fix 4 all nph iso $P $P $(1000.0*dt)
fix 4 all nph iso 100000 $P $(1000.0*dt)
fix 4 all nph iso 100000 100000 $(1000.0*dt)
fix 4 all nph iso 100000 100000 0.5
dump 4 all custom 1000 4nph.bin id type x y z vx vy vz
run 1000000
Step          Temp          Press           CPU            Pxx            Pyy            Pzz            Pxy            Pxz            Pyz           KinEng         PotEng         TotEng         Volume           Lx             Ly             Lz          Atoms
3000000   3202.2077      109330.16      0              114700.53      113837.77      99452.191     -804.99211      281.92613      41.359744      6638.8281      8112.6792      14751.507      173311.1       43.956932      43.956932      89.695705          16040
Averages over the last 501 of 1001 rows, steps 3500000 to 4000000:
Temp Press Pxx Pyy Pzz Pxy Pxz Pyz KinEng PotEng TotEng Volume Lx Ly Lz Atoms
3160.68 99806.4 88664.5 92434 118321 -24.4604 -93.3264 96.9619 6552.73 7533.61 14086.3 179164 44.4463 44.4463 90.6942 16040
Loop time of 7379.35 on 8 procs for 1000000 steps with 16040 atoms
