atom_style atomic
units metal
boundary p p p
#atom_modify sort 0 0.0
newton on

read_data data.lammps
Reading data file ...
  orthogonal box = (0 0 0) to (43.790145 43.790145 87.58029)
  reading atoms ...
  16040 atoms
# replicate 10 10 20

### interactions

pair_style flare
pair_coeff * * lmp.flare
Reading potential file lmp.flare with DATE: Thu

# compute unc all flare/std/atom L_inv_lmp.flare sparse_desc_lmp.flare
# compute MaxUnc all reduce max c_unc

mass 1 12.011000
mass 2 28.085000

thermo_style custom step temp press cpu pxx pyy pzz pxy pxz pyz ke pe etotal vol lx ly lz atoms    #c_MaxUnc
thermo 1000
timestep 0.0005
restart 100000 restart_*.dat

#################### Equilibrate at P and T_es ##############################
velocity all create $T 41928459 rot yes dist gaussian
velocity all create 3800 41928459 rot yes dist gaussian
fix mom all momentum 1000 linear 1 1 1 angular

fix 1 all npt temp $T $T $(100.0*dt) iso $P $P $(1000.0*dt)
fix 1 all npt temp 3800 $T $(100.0*dt) iso $P $P $(1000.0*dt)
fix 1 all npt temp 3800 3800 $(100.0*dt) iso $P $P $(1000.0*dt)
fix 1 all npt temp 3800 3800 0.050000000000000002776 iso $P $P $(1000.0*dt)
fix 1 all npt temp 3800 3800 0.050000000000000002776 iso 600000 $P $(1000.0*dt)
fix 1 all npt temp 3800 3800 0.050000000000000002776 iso 600000 600000 $(1000.0*dt)
fix 1 all npt temp 3800 3800 0.050000000000000002776 iso 600000 600000 0.5
dump 1 all custom 1000 1equil.bin id type x y z vx vy vz
run   10000 # report performance
  update every 1 steps, delay 10 steps, check yes
Step          Temp          Press           CPU            Pxx            Pyy            Pzz            Pxy            Pxz            Pyz           KinEng         PotEng         TotEng         Volume           Lx             Ly             Lz          Atoms
0   3800           84539.211      0              85134.427      84099.503      84383.704      1075.1264     -195.07342     -877.12361      7878.1732     -2985.8921      4892.2811      167941.93      43.790145      43.790145      87.58029           16040
Averages over the last 6 of 11 rows, steps 5000 to 10000:
Temp Press Pxx Pyy Pzz Pxy Pxz Pyz KinEng PotEng TotEng Volume Lx Ly Lz Atoms
3794.97 599187 598466 599696 599398 -285.119 -2789.86 314.865 7867.75 8750.84 16618.6 142785 41.4843 41.4843 82.9687 16040
Loop time of 73.9125 on 8 procs for 10000 steps with 16040 atoms

run  990000
Step          Temp          Press           CPU            Pxx            Pyy            Pzz            Pxy            Pxz            Pyz           KinEng         PotEng         TotEng         Volume           Lx             Ly             Lz          Atoms
10000   3823.7672      593980.48      0              592722.05      594042.04      595177.33      536.02831     -3577.6228      3638.4147      7927.4473      8691.5025      16618.95       142952.09      41.500517      41.500517      83.001034          16040
Averages over the last 496 of 991 rows, steps 505000 to 1000000:
Temp Press Pxx Pyy Pzz Pxy Pxz Pyz KinEng PotEng TotEng Volume Lx Ly Lz Atoms
3801.97 600064 599955 600144 600093 -124.019 16.4496 204.087 7882.26 8346 16228.3 142773 41.4832 41.4832 82.9664 16040
Loop time of 7360.79 on 8 procs for 990000 steps with 16040 atoms

unfix 1
undump 1

#################### Fix half atoms along z-axis, heat the other half #################
region middle block INF INF INF INF 22.0 66.0
group mobile region middle
8517 atoms in group mobile
fix 2 mobile npt temp $T 5000 $(100.0*dt) z $P $P $(1000.0*dt)
fix 2 mobile npt temp 3800 5000 $(100.0*dt) z $P $P $(1000.0*dt)
fix 2 mobile npt temp 3800 5000 0.050000000000000002776 z $P $P $(1000.0*dt)
fix 2 mobile npt temp 3800 5000 0.050000000000000002776 z 600000 $P $(1000.0*dt)
fix 2 mobile npt temp 3800 5000 0.050000000000000002776 z 600000 600000 $(1000.0*dt)
fix 2 mobile npt temp 3800 5000 0.050000000000000002776 z 600000 600000 0.5
dump 2 all custom 1000 2heathalf.bin id type x y z vx vy vz
run  1000000
Step          Temp          Press           CPU            Pxx            Pyy            Pzz            Pxy            Pxz            Pyz           KinEng         PotEng         TotEng         Volume           Lx             Ly             Lz          Atoms
1000000   3809.2595      604663.11      0              607051.86      603905.88      603031.59     -1029.5068      1681.5758     -3616.7309      7897.37        8409.9999      16307.37       142617.24      41.468087      41.468087      82.936175          16040
Averages over the last 501 of 1001 rows, steps 1500000 to 2000000:
Temp Press Pxx Pyy Pzz Pxy Pxz Pyz KinEng PotEng TotEng Volume Lx Ly Lz Atoms
4699.63 603251 605510 604103 600140 -907.857 -91.955 917.729 9743.28 18822.6 28565.9 143533 41.4681 41.4681 83.469 16040
Loop time of 7440.82 on 8 procs for 1000000 steps with 16040 atoms

unfix 2
undump 2

#################### Cool down the hot half to T_es ##############################
fix 3 mobile npt temp 5000 $T $(100.0*dt) z $P $P $(1000.0*dt)
fix 3 mobile npt temp 5000 3800 $(100.0*dt) z $P $P $(1000.0*dt)
fix 3 mobile npt temp 5000 3800 0.050000000000000002776 z $P $P $(1000.0*dt)
fix 3 mobile npt temp 5000 3800 0.050000000000000002776 z 600000 $P $(1000.0*dt)
fix 3 mobile npt temp 5000 3800 0.050000000000000002776 z 600000 600000 $(1000.0*dt)
fix 3 mobile npt temp 5000 3800 0.050000000000000002776 z 600000 600000 0.5
dump 3 all custom 1000 3coolhalf.bin id type x y z vx vy vz
run  1000000
Step          Temp          Press           CPU            Pxx            Pyy            Pzz            Pxy            Pxz            Pyz           KinEng         PotEng         TotEng         Volume           Lx             Ly             Lz          Atoms
2000000   4973.5139      598595.58      0              603100         598853.74      593833.01     -806.32663     -2983.3609     -1116.7442      10311.106      19122.849      29433.956      144363.14      41.468087      41.468087      83.951471          16040
Averages over the last 501 of 1001 rows, steps 2500000 to 3000000:
Temp Press Pxx Pyy Pzz Pxy Pxz Pyz KinEng PotEng TotEng Volume Lx Ly Lz Atoms
4097.95 598013 597550 596524 599964 -828.004 107.804 939.647 8495.88 17680 26175.9 142355 41.4681 41.4681 82.7837 16040
Loop time of 7437.25 on 8 procs for 1000000 steps with 16040 atoms

unfix 3
undump 3

#################### Whole system relax in the nph ensemble at P ######################
fix 4 all nph iso $P $P $(1000.0*dt)
fix 4 all nph iso 600000 $P $(1000.0*dt)
fix 4 all nph iso 600000 600000 $(1000.0*dt)
fix 4 all nph iso 600000 600000 0.5
dump 4 all custom 1000 4nph.bin id type x y z vx vy vz
run 1000000
Step          Temp          Press           CPU            Pxx            Pyy            Pzz            Pxy            Pxz            Pyz           KinEng         PotEng         TotEng         Volume           Lx             Ly             Lz          Atoms
3000000   3803.57        590994.35      0              591590.19      589550.96      591841.88     -1898.6678     -2057.8594     -752.47635      7885.5746      16692.382      24577.957      141868.93      41.468087      41.468087      82.501016          16040
Averages over the last 501 of 1001 rows, steps 3500000 to 4000000:
Temp Press Pxx Pyy Pzz Pxy Pxz Pyz KinEng PotEng TotEng Volume Lx Ly Lz Atoms
3595.96 599932 601590 601505 596702 -15.7488 140.403 -130.578 7455.15 17308.1 24763.3 140465 41.3308 41.3308 82.228 16040
Loop time of 7517.56 on 8 procs for 1000000 steps with 16040 atoms
