atom_style atomic
units metal
boundary p p p
#atom_modify sort 0 0.0
newton on

read_data data.lammps
Reading data file ...
  orthogonal box = (0 0 0) to (43.790145 43.790145 87.58029)
  reading atoms ...
  16040 atoms
# replicate 10 10 20

### interactions

pair_style flare
pair_coeff * * lmp.flare
Reading potential file lmp.flare with DATE: Thu

# compute unc all flare/std/atom L_inv_lmp.flare sparse_desc_lmp.flare
# compute MaxUnc all reduce max c_unc

mass 1 12.011000
mass 2 28.085000

thermo_style custom step temp press cpu pxx pyy pzz pxy pxz pyz ke pe etotal vol lx ly lz atoms    #c_MaxUnc
thermo 1000
timestep 0.0005
restart 100000 restart_*.dat

#################### Equilibrate at P and T_es ##############################
velocity all create $T 41928459 rot yes dist gaussian
velocity all create 3800 41928459 rot yes dist gaussian
fix mom all momentum 1000 linear 1 1 1 angular

fix 1 all npt temp $T $T $(100.0*dt) iso $P $P $(1000.0*dt)
fix 1 all npt temp 3800 $T $(100.0*dt) iso $P $P $(1000.0*dt)
fix 1 all npt temp 3800 3800 $(100.0*dt) iso $P $P $(1000.0*dt)
fix 1 all npt temp 3800 3800 0.050000000000000002776 iso $P $P $(1000.0*dt)
fix 1 all npt temp 3800 3800 0.050000000000000002776 iso 300000 $P $(1000.0*dt)
fix 1 all npt temp 3800 3800 0.050000000000000002776 iso 300000 300000 $(1000.0*dt)
fix 1 all npt temp 3800 3800 0.050000000000000002776 iso 300000 300000 0.5
dump 1 all custom 1000 1equil.bin id type x y z vx vy vz
run   10000 # report performance
  update every 1 steps, delay 10 steps, check yes
Step          Temp          Press           CPU            Pxx            Pyy            Pzz            Pxy            Pxz            Pyz           KinEng         PotEng         TotEng         Volume           Lx             Ly             Lz          Atoms
0   3800           84539.211      0              85134.427      84099.503      84383.704      1075.1264     -195.07342     -877.12361      7878.1732     -2985.8921      4892.2811      167941.93      43.790145      43.790145      87.58029           16040
Averages over the last 6 of 11 rows, steps 5000 to 10000:
Temp Press Pxx Pyy Pzz Pxy Pxz Pyz KinEng PotEng TotEng Volume Lx Ly Lz Atoms
3803.16 297734 298064 297885 297253 278.453 -144.284 -235.292 7884.72 5913.37 13798.1 157600 42.8721 42.8721 85.7443 16040
Loop time of 64.2193 on 8 procs for 10000 steps with 16040 atoms

run  990000
Step          Temp          Press           CPU            Pxx            Pyy            Pzz            Pxy            Pxz            Pyz           KinEng         PotEng         TotEng         Volume           Lx             Ly             Lz          Atoms
10000   3770.6891      296417.13      0              297420.91      295921.54      295908.94      1053.7444     -556.17668      1835.5562      7817.4057      5930.7867      13748.192      157709.24      42.882068      42.882068      85.764135          16040
Averages over the last 496 of 991 rows, steps 505000 to 1000000:
Temp Press Pxx Pyy Pzz Pxy Pxz Pyz KinEng PotEng TotEng Volume Lx Ly Lz Atoms
3800.38 300097 300142 300107 300043 18.2767 -140.816 -128.691 7878.97 5609.97 13488.9 157271 42.8423 42.8423 85.6847 16040
Loop time of 6353.8 on 8 procs for 990000 steps with 16040 atoms

unfix 1
undump 1

#################### Fix half atoms along z-axis, heat the other half #################
region middle block INF INF INF INF 22.0 66.0
group mobile region middle
8223 atoms in group mobile
fix 2 mobile npt temp $T 5000 $(100.0*dt) z $P $P $(1000.0*dt)
fix 2 mobile npt temp 3800 5000 $(100.0*dt) z $P $P $(1000.0*dt)
fix 2 mobile npt temp 3800 5000 0.050000000000000002776 z $P $P $(1000.0*dt)
fix 2 mobile npt temp 3800 5000 0.050000000000000002776 z 300000 $P $(1000.0*dt)
fix 2 mobile npt temp 3800 5000 0.050000000000000002776 z 300000 300000 $(1000.0*dt)
fix 2 mobile npt temp 3800 5000 0.050000000000000002776 z 300000 300000 0.5
dump 2 all custom 1000 2heathalf.bin id type x y z vx vy vz
run  1000000
Step          Temp          Press           CPU            Pxx            Pyy            Pzz            Pxy            Pxz            Pyz           KinEng         PotEng         TotEng         Volume           Lx             Ly             Lz          Atoms
1000000   3783.2072      300756.4       0              300530.74      301720.53      300017.93      153.33993     -2673.7571     -1707.1047      7843.3582      5567.8834      13411.242      157228.12      42.838416      42.838416      85.676833          16040
Averages over the last 501 of 1001 rows, steps 1500000 to 2000000:
Temp Press Pxx Pyy Pzz Pxy Pxz Pyz KinEng PotEng TotEng Volume Lx Ly Lz Atoms
4698.91 316323 324568 324104 300297 837.741 541.683 1540.29 9741.79 15774.4 25516.2 160875 42.8384 42.8384 87.6642 16040
Loop time of 6896.75 on 8 procs for 1000000 steps with 16040 atoms

unfix 2
undump 2

#################### Cool down the hot half to T_es ##############################
fix 3 mobile npt temp 5000 $T $(100.0*dt) z $P $P $(1000.0*dt)
fix 3 mobile npt temp 5000 3800 $(100.0*dt) z $P $P $(1000.0*dt)
fix 3 mobile npt temp 5000 3800 0.050000000000000002776 z $P $P $(1000.0*dt)
fix 3 mobile npt temp 5000 3800 0.050000000000000002776 z 300000 $P $(1000.0*dt)
fix 3 mobile npt temp 5000 3800 0.050000000000000002776 z 300000 300000 $(1000.0*dt)
fix 3 mobile npt temp 5000 3800 0.050000000000000002776 z 300000 300000 0.5
dump 3 all custom 1000 3coolhalf.bin id type x y z vx vy vz
run  1000000
Step          Temp          Press           CPU            Pxx            Pyy            Pzz            Pxy            Pxz            Pyz           KinEng         PotEng         TotEng         Volume           Lx             Ly             Lz          Atoms
2000000   4971.6945      318075.44      0              326390.99      329515.21      298320.12      1257.9391      1756.2357      1096.572       10307.334      16141.152      26448.487      161639.77      42.838416      42.838416      88.080829          16040
Averages over the last 501 of 1001 rows, steps 2500000 to 3000000:
Temp Press Pxx Pyy Pzz Pxy Pxz Pyz KinEng PotEng TotEng Volume Lx Ly Lz Atoms
4099.54 309897 315075 314532 300084 1026.52 707.053 1662.57 8499.19 14639.3 23138.5 159420 42.8384 42.8384 86.8713 16040
Loop time of 7224.77 on 8 procs for 1000000 steps with 16040 atoms

unfix 3
undump 3

#################### Whole system relax in the nph ensemble at P ######################
fix 4 all nph iso $P $P $(1000.0*dt)
fix 4 all nph iso 300000 $P $(1000.0*dt)
fix 4 all nph iso 300000 300000 $(1000.0*dt)
fix 4 all nph iso 300000 300000 0.5
dump 4 all custom 1000 4nph.bin id type x y z vx vy vz
run 1000000
Step          Temp          Press           CPU            Pxx            Pyy            Pzz            Pxy            Pxz            Pyz           KinEng         PotEng         TotEng         Volume           Lx             Ly             Lz          Atoms
3000000   3785.5668      305215.43      0              306937.85      308667.53      300040.92     -699.08845      2259.5181      3585.3743      7848.2501      13728.045      21576.295      158467.76      42.838416      42.838416      86.35234           16040
Averages over the last 501 of 1001 rows, steps 3500000 to 4000000:
Temp Press Pxx Pyy Pzz Pxy Pxz Pyz KinEng PotEng TotEng Volume Lx Ly Lz Atoms
3631.62 299894 297995 297969 303717 -132.431 -143.282 107.57 7529.08 13484.3 21013.4 159606 42.9407 42.9407 86.5585 16040
Loop time of 7195.48 on 8 procs for 1000000 steps with 16040 atoms
