atom_style atomic
units metal
boundary p p p
#atom_modify sort 0 0.0
newton on

read_data data.lammps
Reading data file ...
  orthogonal box = (0 0 0) to (43.790145 43.790145 87.58029)
  reading atoms ...
  16040 atoms
# replicate 10 10 20

### interactions

pair_style flare
pair_coeff * * lmp.flare
Reading potential file lmp.flare with DATE: Thu

# compute unc all flare/std/atom L_inv_lmp.flare sparse_desc_lmp.flare
# compute MaxUnc all reduce max c_unc

mass 1 12.011000
mass 2 28.085000

thermo_style custom step temp press cpu pxx pyy pzz pxy pxz pyz ke pe etotal vol lx ly lz atoms    #c_MaxUnc
thermo 1000
timestep 0.0005
restart 100000 restart_*.dat

#################### Equilibrate at P and T_es ##############################
velocity all create $T 41928459 rot yes dist gaussian
velocity all create 3200 41928459 rot yes dist gaussian
fix mom all momentum 1000 linear 1 1 1 angular

fix 1 all npt temp $T $T $(100.0*dt) iso $P $P $(1000.0*dt)
fix 1 all npt temp 3200 $T $(100.0*dt) iso $P $P $(1000.0*dt)
fix 1 all npt temp 3200 3200 $(100.0*dt) iso $P $P $(1000.0*dt)
fix 1 all npt temp 3200 3200 0.050000000000000002776 iso $P $P $(1000.0*dt)
fix 1 all npt temp 3200 3200 0.050000000000000002776 iso 900000 $P $(1000.0*dt)
fix 1 all npt temp 3200 3200 0.050000000000000002776 iso 900000 900000 $(1000.0*dt)
fix 1 all npt temp 3200 3200 0.050000000000000002776 iso 900000 900000 0.5
dump 1 all custom 1000 1equil.bin id type x y z vx vy vz
run   10000 # report performance
  update every 1 steps, delay 10 steps, check yes
Step          Temp          Press           CPU            Pxx            Pyy            Pzz            Pxy            Pxz            Pyz           KinEng         PotEng         TotEng         Volume           Lx             Ly             Lz          Atoms
0   3200           76627.815      0              77285.378      76158.543      76439.524      1157.9361     -232.12173     -781.28355      6634.2511     -2985.8921      3648.359       167941.93      43.790145      43.790145      87.58029           16040
Averages over the last 6 of 11 rows, steps 5000 to 10000:
Temp Press Pxx Pyy Pzz Pxy Pxz Pyz KinEng PotEng TotEng Volume Lx Ly Lz Atoms
3186.68 899824 899771 899387 900316 144.513 118.348 -610.931 6606.64 11299.6 17906.3 132376 40.4507 40.4507 80.9015 16040
Loop time of 76.2075 on 8 procs for 10000 steps with 16040 atoms

run  990000
Step          Temp          Press           CPU            Pxx            Pyy            Pzz            Pxy            Pxz            Pyz           KinEng         PotEng         TotEng         Volume           Lx             Ly             Lz          Atoms
10000   3177.9108      900104.08      0              900410.4       897743.71      902158.13     -401.38706     -592.9957      -3909.3367      6588.4558      11238.689      17827.145      132378.63      40.451003      40.451003      80.902005          16040
Averages over the last 496 of 991 rows, steps 505000 to 1000000:
Temp Press Pxx Pyy Pzz Pxy Pxz Pyz KinEng PotEng TotEng Volume Lx Ly Lz Atoms
3200.56 900058 900009 900075 900091 -157.022 166.218 182.753 6635.42 10882.6 17518 132420 40.4552 40.4552 80.9105 16040
Loop time of 7551.59 on 8 procs for 990000 steps with 16040 atoms

unfix 1
undump 1

#################### Fix half atoms along z-axis, heat the other half #################
region middle block INF INF INF INF 22.0 66.0
group mobile region middle
8719 atoms in group mobile
fix 2 mobile npt temp $T 5000 $(100.0*dt) z $P $P $(1000.0*dt)
fix 2 mobile npt temp 3200 5000 $(100.0*dt) z $P $P $(1000.0*dt)
fix 2 mobile npt temp 3200 5000 0.050000000000000002776 z $P $P $(1000.0*dt)
fix 2 mobile npt temp 3200 5000 0.050000000000000002776 z 900000 $P $(1000.0*dt)
fix 2 mobile npt temp 3200 5000 0.050000000000000002776 z 900000 900000 $(1000.0*dt)
fix 2 mobile npt temp 3200 5000 0.050000000000000002776 z 900000 900000 0.5
dump 2 all custom 1000 2heathalf.bin id type x y z vx vy vz
run  1000000
Step          Temp          Press           CPU            Pxx            Pyy            Pzz            Pxy            Pxz            Pyz           KinEng         PotEng         TotEng         Volume           Lx             Ly             Lz          Atoms
1000000   3229.7918      907878.68      0              907624.35      907323.59      908688.12     -5118.1391      1922.5937      20.558629      6696.0155      10940.27       17636.286      132283.18      40.441278      40.441278      80.882556          16040
Averages over the last 501 of 1001 rows, steps 1500000 to 2000000:
Temp Press Pxx Pyy Pzz Pxy Pxz Pyz KinEng PotEng TotEng Volume Lx Ly Lz Atoms
4547.97 895441 893080 893498 899746 -2664.5 133.301 -4135.75 9428.86 22307.4 31736.3 131947 40.4413 40.4413 80.6768 16040
Loop time of 7676.34 on 8 procs for 1000000 steps with 16040 atoms

unfix 2
undump 2

#################### Cool down the hot half to T_es ##############################
fix 3 mobile npt temp 5000 $T $(100.0*dt) z $P $P $(1000.0*dt)
fix 3 mobile npt temp 5000 3200 $(100.0*dt) z $P $P $(1000.0*dt)
fix 3 mobile npt temp 5000 3200 0.050000000000000002776 z $P $P $(1000.0*dt)
fix 3 mobile npt temp 5000 3200 0.050000000000000002776 z 900000 $P $(1000.0*dt)
fix 3 mobile npt temp 5000 3200 0.050000000000000002776 z 900000 900000 $(1000.0*dt)
fix 3 mobile npt temp 5000 3200 0.050000000000000002776 z 900000 900000 0.5
dump 3 all custom 1000 3coolhalf.bin id type x y z vx vy vz
run  1000000
Step          Temp          Press           CPU            Pxx            Pyy            Pzz            Pxy            Pxz            Pyz           KinEng         PotEng         TotEng         Volume           Lx             Ly             Lz          Atoms
2000000   5006.7486      897598.73      0              899358.14      895418.1       898019.96     -1782.8999      154.92496     -289.21444      10380.009      22804.99       33184.999      132714.94      40.441278      40.441278      81.146551          16040
Averages over the last 501 of 1001 rows, steps 2500000 to 3000000:
Temp Press Pxx Pyy Pzz Pxy Pxz Pyz KinEng PotEng TotEng Volume Lx Ly Lz Atoms
3650.84 889672 884300 884934 899781 -2320.34 286.954 -4493.41 7568.94 20185.4 27754.3 130495 40.4413 40.4413 79.7894 16040
Loop time of 7698.14 on 8 procs for 1000000 steps with 16040 atoms

unfix 3
undump 3

#################### Whole system relax in the nph ensemble at P ######################
fix 4 all nph iso $P $P $(1000.0*dt)
fix 4 all nph iso 900000 $P $(1000.0*dt)
fix 4 all nph iso 900000 900000 $(1000.0*dt)
fix 4 all nph iso 900000 900000 0.5
dump 4 all custom 1000 4nph.bin id type x y z vx vy vz
run 1000000
Step          Temp          Press           CPU            Pxx            Pyy            Pzz            Pxy            Pxz            Pyz           KinEng         PotEng         TotEng         Volume           Lx             Ly             Lz          Atoms
3000000   3174.4151      894695.47      0              889293.55      889370.47      905422.38     -729.25199     -3995.8128     -2423.8943      6581.2084      16369.361      22950.57       130177.58      40.441278      40.441278      79.595119          16040
Averages over the last 501 of 1001 rows, steps 3500000 to 4000000:
Temp Press Pxx Pyy Pzz Pxy Pxz Pyz KinEng PotEng TotEng Volume Lx Ly Lz Atoms
4539.38 899979 937099 943838 819002 72276.4 48614.9 -448.679 9411.05 20379.9 29791 117224 39.0527 39.0527 76.8622 16040
Loop time of 7749.02 on 8 procs for 1000000 steps with 16040 atoms
