atom_style atomic
units metal
boundary p p p
#atom_modify sort 0 0.0
newton on

read_data data.lammps
Reading data file ...
  orthogonal box = (0 0 0) to (43.790145 43.790145 87.58029)
  reading atoms ...
  16040 atoms
# replicate 10 10 20

### interactions

pair_style flare
pair_coeff * * lmp.flare
Reading potential file lmp.flare with DATE: Thu

# compute unc all flare/std/atom L_inv_lmp.flare sparse_desc_lmp.flare
# compute MaxUnc all reduce max c_unc

mass 1 12.011000
mass 2 28.085000

thermo_style custom step temp press cpu pxx pyy pzz pxy pxz pyz ke pe etotal vol lx ly lz atoms    #c_MaxUnc
thermo 1000
timestep 0.0005
restart 100000 restart_*.dat

#################### Equilibrate at P and T_es ##############################
velocity all create $T 41928459 rot yes dist gaussian
velocity all create 3400 41928459 rot yes dist gaussian
fix mom all momentum 1000 linear 1 1 1 angular

fix 1 all npt temp $T $T $(100.0*dt) iso $P $P $(1000.0*dt)
fix 1 all npt temp 3400 $T $(100.0*dt) iso $P $P $(1000.0*dt)
fix 1 all npt temp 3400 3400 $(100.0*dt) iso $P $P $(1000.0*dt)
fix 1 all npt temp 3400 3400 0.050000000000000002776 iso $P $P $(1000.0*dt)
fix 1 all npt temp 3400 3400 0.050000000000000002776 iso 100000 $P $(1000.0*dt)
fix 1 all npt temp 3400 3400 0.050000000000000002776 iso 100000 100000 $(1000.0*dt)
fix 1 all npt temp 3400 3400 0.050000000000000002776 iso 100000 100000 0.5
dump 1 all custom 1000 1equil.bin id type x y z vx vy vz
run   10000 # report performance
  update every 1 steps, delay 10 steps, check yes
Step          Temp          Press           CPU            Pxx            Pyy            Pzz            Pxy            Pxz            Pyz           KinEng         PotEng         TotEng         Volume           Lx             Ly             Lz          Atoms
0   3400           79264.947      0              79901.728      78805.53       79087.584      1130.3329     -219.77229     -813.23023      7048.8918     -2985.8921      4062.9997      167941.93      43.790145      43.790145      87.58029           16040
Averages over the last 6 of 11 rows, steps 5000 to 10000:
Temp Press Pxx Pyy Pzz Pxy Pxz Pyz KinEng PotEng TotEng Volume Lx Ly Lz Atoms
3385.41 100582 100180 100855 100712 -389.469 -544.419 -176.472 7018.64 4351.37 11370 171255 44.0762 44.0762 88.1525 16040
Loop time of 67.111 on 8 procs for 10000 steps with 16040 atoms

run  990000
Step          Temp          Press           CPU            Pxx            Pyy            Pzz            Pxy            Pxz            Pyz           KinEng         PotEng         TotEng         Volume           Lx             Ly             Lz          Atoms
10000   3414.7861      100884.39      0              101353.36      100906.53      100393.28     -1161.7778     -1076.8637      51.308482      7079.5464      4305.2051      11384.751      171253.29      44.076082      44.076082      88.152163          16040
Averages over the last 496 of 991 rows, steps 505000 to 1000000:
Temp Press Pxx Pyy Pzz Pxy Pxz Pyz KinEng PotEng TotEng Volume Lx Ly Lz Atoms
3399.2 99899.6 99876.9 99906.6 99915.2 -57.1372 26.0057 -60.1046 7047.24 4026.34 11073.6 170822 44.039 44.039 88.0781 16040
Loop time of 6653.61 on 8 procs for 990000 steps with 16040 atoms

unfix 1
undump 1

#################### Fix half atoms along z-axis, heat the other half #################
region middle block INF INF INF INF 22.0 66.0
group mobile region middle
8009 atoms in group mobile
fix 2 mobile npt temp $T 5000 $(100.0*dt) z $P $P $(1000.0*dt)
fix 2 mobile npt temp 3400 5000 $(100.0*dt) z $P $P $(1000.0*dt)
fix 2 mobile npt temp 3400 5000 0.050000000000000002776 z $P $P $(1000.0*dt)
fix 2 mobile npt temp 3400 5000 0.050000000000000002776 z 100000 $P $(1000.0*dt)
fix 2 mobile npt temp 3400 5000 0.050000000000000002776 z 100000 100000 $(1000.0*dt)
fix 2 mobile npt temp 3400 5000 0.050000000000000002776 z 100000 100000 0.5
dump 2 all custom 1000 2heathalf.bin id type x y z vx vy vz
run  1000000
Step          Temp          Press           CPU            Pxx            Pyy            Pzz            Pxy            Pxz            Pyz           KinEng         PotEng         TotEng         Volume           Lx             Ly             Lz          Atoms
1000000   3395.4642      96957.111      0              96260.974      98064.46       96545.899     -2257.3989      1113.4179      1817.0479      7039.4881      4089.3018      11128.79       171127.06      44.065249      44.065249      88.130499          16040
Averages over the last 501 of 1001 rows, steps 1500000 to 2000000:
Temp Press Pxx Pyy Pzz Pxy Pxz Pyz KinEng PotEng TotEng Volume Lx Ly Lz Atoms
4598.05 130020 144797 145340 99924.8 238.631 795.924 978.073 9532.69 14554.8 24087.5 178433 44.0652 44.0652 91.8932 16040
Loop time of 6598.09 on 8 procs for 1000000 steps with 16040 atoms

unfix 2
undump 2

#################### Cool down the hot half to T_es ##############################
fix 3 mobile npt temp 5000 $T $(100.0*dt) z $P $P $(1000.0*dt)
fix 3 mobile npt temp 5000 3400 $(100.0*dt) z $P $P $(1000.0*dt)
fix 3 mobile npt temp 5000 3400 0.050000000000000002776 z $P $P $(1000.0*dt)
fix 3 mobile npt temp 5000 3400 0.050000000000000002776 z 100000 $P $(1000.0*dt)
fix 3 mobile npt temp 5000 3400 0.050000000000000002776 z 100000 100000 $(1000.0*dt)
fix 3 mobile npt temp 5000 3400 0.050000000000000002776 z 100000 100000 0.5
dump 3 all custom 1000 3coolhalf.bin id type x y z vx vy vz
run  1000000
Step          Temp          Press           CPU            Pxx            Pyy            Pzz            Pxy            Pxz            Pyz           KinEng         PotEng         TotEng         Volume           Lx             Ly             Lz          Atoms
2000000   4995.0145      134307.53      0              151266.8       150257.93      101397.88      1823.0146     -425.35988     -154.96676      10355.681      15179.815      25535.497      179438.84      44.065249      44.065249      92.411069          16040
Averages over the last 501 of 1001 rows, steps 2500000 to 3000000:
Temp Press Pxx Pyy Pzz Pxy Pxz Pyz KinEng PotEng TotEng Volume Lx Ly Lz Atoms
3799.72 120877 131059 131440 100131 -431.968 898.945 1107.04 7877.59 12885.7 20763.3 176183 44.0652 44.0652 90.7346 16040
Loop time of 6880.94 on 8 procs for 1000000 steps with 16040 atoms

unfix 3
undump 3

#################### Whole system relax in the nph ensemble at P ######################
fix 4 all nph iso $P $P $(1000.0*dt)
fix 4 all nph iso 100000 $P $(1000.0*dt)
fix 4 all nph iso 100000 100000 $(1000.0*dt)
fix 4 all nph iso 100000 100000 0.5
dump 4 all custom 1000 4nph.bin id type x y z vx vy vz
run 1000000
Step          Temp          Press           CPU            Pxx            Pyy            Pzz            Pxy            Pxz            Pyz           KinEng         PotEng         TotEng         Volume           Lx             Ly             Lz          Atoms
3000000   3405.1302      116833.08      0              124387.68      121767.67      104343.88      86.909059     -865.72842      1221.9486      7059.5278      10684.32       17743.848      174560.93      44.065249      44.065249      89.898942          16040
Averages over the last 501 of 1001 rows, steps 3500000 to 4000000:
Temp Press Pxx Pyy Pzz Pxy Pxz Pyz KinEng PotEng TotEng Volume Lx Ly Lz Atoms
3220.18 100109 89201.9 95350.6 115775 234.347 -33.9425 -27.4621 6676.09 10019.6 16695.7 185856 44.9958 44.9958 91.7974 16040
Loop time of 7399.68 on 8 procs for 1000000 steps with 16040 atoms
