atom_style atomic
units metal
boundary p p p
#atom_modify sort 0 0.0
newton on

read_data data.lammps
Reading data file ...
  orthogonal box = (0 0 0) to (3.89 3.89 3.89)
  reading atoms ...
  8 atoms
replicate 10 10 20
Replicating atoms ...
  orthogonal box = (0 0 0) to (38.9 38.9 77.8)
  16000 atoms
  replicate CPU = 0.007 seconds

### interactions

pair_style flare
pair_coeff * * lmp.flare
Reading potential file lmp.flare with DATE: Thu

# compute unc all flare/std/atom L_inv_lmp.flare sparse_desc_lmp.flare
# compute MaxUnc all reduce max c_unc

mass 1 12.011000
mass 2 28.085000

thermo_style custom step temp press cpu pxx pyy pzz pxy pxz pyz ke pe etotal vol lx ly lz atoms    #c_MaxUnc
thermo 1000
timestep 0.0005
restart 100000 restart_*.dat

#################### Equilibrate at P and T_es ##############################
velocity all create $T 41928459 rot yes dist gaussian
velocity all create 4800 41928459 rot yes dist gaussian
fix mom all momentum 1000 linear 1 1 1 angular

fix 1 all npt temp $T $T $(100.0*dt) iso $P $P $(1000.0*dt)
fix 1 all npt temp 4800 $T $(100.0*dt) iso $P $P $(1000.0*dt)
fix 1 all npt temp 4800 4800 $(100.0*dt) iso $P $P $(1000.0*dt)
fix 1 all npt temp 4800 4800 0.050000000000000002776 iso $P $P $(1000.0*dt)
fix 1 all npt temp 4800 4800 0.050000000000000002776 iso 900000 $P $(1000.0*dt)
fix 1 all npt temp 4800 4800 0.050000000000000002776 iso 900000 900000 $(1000.0*dt)
fix 1 all npt temp 4800 4800 0.050000000000000002776 iso 900000 900000 0.5
dump 1 all custom 1000 1equil.bin id type x y z vx vy vz
run   10000 # report performance
  update every 1 steps, delay 10 steps, check yes
Step          Temp          Press           CPU            Pxx            Pyy            Pzz            Pxy            Pxz            Pyz           KinEng         PotEng         TotEng         Volume           Lx             Ly             Lz          Atoms
0   4800           488364.62      0              487683.89      488674.73      488735.25     -950.84889      429.02855     -1073.5045      9926.5587      10000.526      19927.085      117727.74      38.9           38.9           77.8               16000
Averages over the last 6 of 11 rows, steps 5000 to 10000:
Temp Press Pxx Pyy Pzz Pxy Pxz Pyz KinEng PotEng TotEng Volume Lx Ly Lz Atoms
4792.91 901554 901477 903099 900087 -428.589 170.192 457.58 9911.89 20055.7 29967.6 116737 38.7906 38.7906 77.5811 16000
Loop time of 75.4947 on 8 procs for 10000 steps with 16000 atoms

run  990000
Step          Temp          Press           CPU            Pxx            Pyy            Pzz            Pxy            Pxz            Pyz           KinEng         PotEng         TotEng         Volume           Lx             Ly             Lz          Atoms
10000   4817.0356      900950.58      0              900220.92      900411.43      902219.4      -1160.3219      367.8309       939.54981      9961.7888      20026.663      29988.452      116706.41      38.787183      38.787183      77.574367          16000
Averages over the last 496 of 991 rows, steps 505000 to 1000000:
Temp Press Pxx Pyy Pzz Pxy Pxz Pyz KinEng PotEng TotEng Volume Lx Ly Lz Atoms
4800.28 900506 900588 900658 900273 -12.6369 -23.8996 14.2374 9927.14 20091.5 30018.6 116821 38.7999 38.7999 77.5998 16000
Loop time of 7473.66 on 8 procs for 990000 steps with 16000 atoms

unfix 1
undump 1

#################### Fix half atoms along z-axis, heat the other half #################
region middle block INF INF INF INF 22.0 66.0
group mobile region middle
8957 atoms in group mobile
fix 2 mobile npt temp $T 6000 $(100.0*dt) z $P $P $(1000.0*dt)
fix 2 mobile npt temp 4800 6000 $(100.0*dt) z $P $P $(1000.0*dt)
fix 2 mobile npt temp 4800 6000 0.050000000000000002776 z $P $P $(1000.0*dt)
fix 2 mobile npt temp 4800 6000 0.050000000000000002776 z 900000 $P $(1000.0*dt)
fix 2 mobile npt temp 4800 6000 0.050000000000000002776 z 900000 900000 $(1000.0*dt)
fix 2 mobile npt temp 4800 6000 0.050000000000000002776 z 900000 900000 0.5
dump 2 all custom 1000 2heathalf.bin id type x y z vx vy vz
run  1000000
Step          Temp          Press           CPU            Pxx            Pyy            Pzz            Pxy            Pxz            Pyz           KinEng         PotEng         TotEng         Volume           Lx             Ly             Lz          Atoms
1000000   4829.6531      913731.89      0              912864.13      915576.5       912755.03      417.90242     -637.80327     -1565.1353      9987.8823      20243.84       30231.722      116516.8       38.766166      38.766166      77.532332          16000
Averages over the last 501 of 1001 rows, steps 1500000 to 2000000:
Temp Press Pxx Pyy Pzz Pxy Pxz Pyz KinEng PotEng TotEng Volume Lx Ly Lz Atoms
5699.25 963403 993804 996458 899946 -630.318 -2099.92 -587.466 11786.2 28101.8 39888.1 122403 38.7662 38.7662 81.4488 16000
Loop time of 7638.43 on 8 procs for 1000000 steps with 16000 atoms

unfix 2
undump 2

#################### Cool down the hot half to T_es ##############################
fix 3 mobile npt temp 6000 $T $(100.0*dt) z $P $P $(1000.0*dt)
fix 3 mobile npt temp 6000 4800 $(100.0*dt) z $P $P $(1000.0*dt)
fix 3 mobile npt temp 6000 4800 0.050000000000000002776 z $P $P $(1000.0*dt)
fix 3 mobile npt temp 6000 4800 0.050000000000000002776 z 900000 $P $(1000.0*dt)
fix 3 mobile npt temp 6000 4800 0.050000000000000002776 z 900000 900000 $(1000.0*dt)
fix 3 mobile npt temp 6000 4800 0.050000000000000002776 z 900000 900000 0.5
dump 3 all custom 1000 3coolhalf.bin id type x y z vx vy vz
run  1000000
Step          Temp          Press           CPU            Pxx            Pyy            Pzz            Pxy            Pxz            Pyz           KinEng         PotEng         TotEng         Volume           Lx             Ly             Lz          Atoms
2000000   6033.1917      963034.27      0              995233.19      997496.66      896372.94     -4374.6169      1166.3226     -4774.2768      12476.84       28645.278      41122.118      123180.69      38.766166      38.766166      81.966605          16000
Averages over the last 501 of 1001 rows, steps 2500000 to 3000000:
Temp Press Pxx Pyy Pzz Pxy Pxz Pyz KinEng PotEng TotEng Volume Lx Ly Lz Atoms
5100.39 953973 979708 982632 899580 -691.094 -2301.7 -532.125 10547.8 27229.1 37776.9 121477 38.7662 38.7662 80.8328 16000
Loop time of 7690.61 on 8 procs for 1000000 steps with 16000 atoms

unfix 3
undump 3

#################### Whole system relax in the nph ensemble at P ######################
fix 4 all nph iso $P $P $(1000.0*dt)
fix 4 all nph iso 900000 $P $(1000.0*dt)
fix 4 all nph iso 900000 900000 $(1000.0*dt)
fix 4 all nph iso 900000 900000 0.5
dump 4 all custom 1000 4nph.bin id type x y z vx vy vz
run 1000000
Step          Temp          Press           CPU            Pxx            Pyy            Pzz            Pxy            Pxz            Pyz           KinEng         PotEng         TotEng         Volume           Lx             Ly             Lz          Atoms
3000000   4772.8708      948201.62      0              968176.04      969791.68      906637.14     -1250.2655     -4559.983       257.26255      9870.4546      26116.479      35986.934      120503.82      38.766166      38.766166      80.185369          16000
Averages over the last 501 of 1001 rows, steps 3500000 to 4000000:
Temp Press Pxx Pyy Pzz Pxy Pxz Pyz KinEng PotEng TotEng Volume Lx Ly Lz Atoms
4527.76 900287 892463 892153 916244 61.7812 6.63545 -33.1453 9363.56 25187 34550.6 122260 38.9535 38.9535 80.5729 16000
Loop time of 7557.9 on 8 procs for 1000000 steps with 16000 atoms
