atom_style atomic
units metal
boundary p p p
#atom_modify sort 0 0.0
newton on

read_data data.lammps
Reading data file ...
  orthogonal box = (0 0 0) to (43.790145 43.790145 87.58029)
  reading atoms ...
  16004 atoms
# replicate 10 10 20

### interactions

pair_style flare
pair_coeff * * lmp.flare
Reading potential file lmp.flare with DATE: Thu

# compute unc all flare/std/atom L_inv_lmp.flare sparse_desc_lmp.flare
# compute MaxUnc all reduce max c_unc

mass 1 12.011000
mass 2 28.085000

thermo_style custom step temp press cpu pxx pyy pzz pxy pxz pyz ke pe etotal vol lx ly lz atoms    #c_MaxUnc
thermo 1000
timestep 0.0005
restart 100000 restart_*.dat

#################### Equilibrate at P and T_es ##############################
velocity all create $T 41928459 rot yes dist gaussian
velocity all create 3400 41928459 rot yes dist gaussian
fix mom all momentum 1000 linear 1 1 1 angular

fix 1 all npt temp $T $T $(100.0*dt) iso $P $P $(1000.0*dt)
fix 1 all npt temp 3400 $T $(100.0*dt) iso $P $P $(1000.0*dt)
fix 1 all npt temp 3400 3400 $(100.0*dt) iso $P $P $(1000.0*dt)
fix 1 all npt temp 3400 3400 0.050000000000000002776 iso $P $P $(1000.0*dt)
fix 1 all npt temp 3400 3400 0.050000000000000002776 iso 600000 $P $(1000.0*dt)
fix 1 all npt temp 3400 3400 0.050000000000000002776 iso 600000 600000 $(1000.0*dt)
fix 1 all npt temp 3400 3400 0.050000000000000002776 iso 600000 600000 0.5
dump 1 all custom 1000 1equil.bin id type x y z vx vy vz
run   10000 # report performance
  update every 1 steps, delay 10 steps, check yes
Step          Temp          Press           CPU            Pxx            Pyy            Pzz            Pxy            Pxz            Pyz           KinEng         PotEng         TotEng         Volume           Lx             Ly             Lz          Atoms
0   3400           64926.693      0              64530.624      64954.416      65295.038     -818.57267      21.423832     -526.49983      7033.0703     -4000.2205      3032.8498      167941.93      43.790145      43.790145      87.58029           16004
Averages over the last 6 of 11 rows, steps 5000 to 10000:
Temp Press Pxx Pyy Pzz Pxy Pxz Pyz KinEng PotEng TotEng Volume Lx Ly Lz Atoms
3392.39 600056 600243 600325 599600 506.896 982.793 -360.341 7017.33 7256.49 14273.8 142071 41.415 41.415 82.8301 16004
Loop time of 66.8711 on 8 procs for 10000 steps with 16004 atoms

run  990000
Step          Temp          Press           CPU            Pxx            Pyy            Pzz            Pxy            Pxz            Pyz           KinEng         PotEng         TotEng         Volume           Lx             Ly             Lz          Atoms
10000   3422.6647      602810.56      0              604482.19      602080.66      601868.82     -112.62246      2777.7478      2565.0395      7079.9535      7278.3728      14358.326      142004.42      41.408608      41.408608      82.817215          16004
Averages over the last 496 of 991 rows, steps 505000 to 1000000:
Temp Press Pxx Pyy Pzz Pxy Pxz Pyz KinEng PotEng TotEng Volume Lx Ly Lz Atoms
3398.66 599995 599900 600007 600079 26.6932 -9.88974 -84.5405 7030.3 7224.13 14254.4 142046 41.4126 41.4126 82.8253 16004
Loop time of 6612.97 on 8 procs for 990000 steps with 16004 atoms

unfix 1
undump 1

#################### Fix half atoms along z-axis, heat the other half #################
region middle block INF INF INF INF 22.0 66.0
group mobile region middle
8550 atoms in group mobile
fix 2 mobile npt temp $T 5000 $(100.0*dt) z $P $P $(1000.0*dt)
fix 2 mobile npt temp 3400 5000 $(100.0*dt) z $P $P $(1000.0*dt)
fix 2 mobile npt temp 3400 5000 0.050000000000000002776 z $P $P $(1000.0*dt)
fix 2 mobile npt temp 3400 5000 0.050000000000000002776 z 600000 $P $(1000.0*dt)
fix 2 mobile npt temp 3400 5000 0.050000000000000002776 z 600000 600000 $(1000.0*dt)
fix 2 mobile npt temp 3400 5000 0.050000000000000002776 z 600000 600000 0.5
dump 2 all custom 1000 2heathalf.bin id type x y z vx vy vz
run  1000000
Step          Temp          Press           CPU            Pxx            Pyy            Pzz            Pxy            Pxz            Pyz           KinEng         PotEng         TotEng         Volume           Lx             Ly             Lz          Atoms
1000000   3358.6263      594763.57      0              593984.09      594496.81      595809.82      3854.2381     -1484.8235      2879.5234      6947.4867      7101.3258      14048.812      142225.87      41.430121      41.430121      82.860241          16004
Averages over the last 501 of 1001 rows, steps 1500000 to 2000000:
Temp Press Pxx Pyy Pzz Pxy Pxz Pyz KinEng PotEng TotEng Volume Lx Ly Lz Atoms
4599.65 602551 604188 603839 599626 1428.61 -659.353 182.097 9514.61 18395.7 27910.3 143170 41.4301 41.4301 83.4105 16004
Loop time of 7132.38 on 8 procs for 1000000 steps with 16004 atoms

unfix 2
undump 2

#################### Cool down the hot half to T_es ##############################
fix 3 mobile npt temp 5000 $T $(100.0*dt) z $P $P $(1000.0*dt)
fix 3 mobile npt temp 5000 3400 $(100.0*dt) z $P $P $(1000.0*dt)
fix 3 mobile npt temp 5000 3400 0.050000000000000002776 z $P $P $(1000.0*dt)
fix 3 mobile npt temp 5000 3400 0.050000000000000002776 z 600000 $P $(1000.0*dt)
fix 3 mobile npt temp 5000 3400 0.050000000000000002776 z 600000 600000 $(1000.0*dt)
fix 3 mobile npt temp 5000 3400 0.050000000000000002776 z 600000 600000 0.5
dump 3 all custom 1000 3coolhalf.bin id type x y z vx vy vz
run  1000000
Step          Temp          Press           CPU            Pxx            Pyy            Pzz            Pxy            Pxz            Pyz           KinEng         PotEng         TotEng         Volume           Lx             Ly             Lz          Atoms
2000000   5026.3199      600561.57      0              603661.52      603216.22      594806.98     -1958.0462      590.97422     -2862.9049      10397.195      18849.136      29246.331      144257.11      41.430121      41.430121      84.043634          16004
Averages over the last 501 of 1001 rows, steps 2500000 to 3000000:
Temp Press Pxx Pyy Pzz Pxy Pxz Pyz KinEng PotEng TotEng Volume Lx Ly Lz Atoms
3800.42 596173 594289 594067 600163 1693.89 -717.194 315.341 7861.36 16634.2 24495.5 141621 41.4301 41.4301 82.5081 16004
Loop time of 7621.48 on 8 procs for 1000000 steps with 16004 atoms

unfix 3
undump 3

#################### Whole system relax in the nph ensemble at P ######################
fix 4 all nph iso $P $P $(1000.0*dt)
fix 4 all nph iso 600000 $P $(1000.0*dt)
fix 4 all nph iso 600000 600000 $(1000.0*dt)
fix 4 all nph iso 600000 600000 0.5
dump 4 all custom 1000 4nph.bin id type x y z vx vy vz
run 1000000
Step          Temp          Press           CPU            Pxx            Pyy            Pzz            Pxy            Pxz            Pyz           KinEng         PotEng         TotEng         Volume           Lx             Ly             Lz          Atoms
3000000   3394.3014      596042.73      0              595489.68      593478.95      599159.57      2074.2993     -1825.4297     -314.25411      7021.2825      13696.948      20718.23       140902.63      41.430121      41.430121      82.089327          16004
Averages over the last 501 of 1001 rows, steps 3500000 to 4000000:
Temp Press Pxx Pyy Pzz Pxy Pxz Pyz KinEng PotEng TotEng Volume Lx Ly Lz Atoms
3599.21 600009 599298 599392 601336 -10.207 -88.6238 -18.2964 7445.15 12813.1 20258.2 141194 41.4587 41.4587 82.1459 16004
Loop time of 7557.28 on 8 procs for 1000000 steps with 16004 atoms
