atom_style atomic
units metal
boundary p p p
#atom_modify sort 0 0.0
newton on

read_data data.lammps
Reading data file ...
  orthogonal box = (0 0 0) to (43.790145 43.790145 87.58029)
  reading atoms ...
  16004 atoms
# replicate 10 10 20

### interactions

pair_style flare
pair_coeff * * lmp.flare
Reading potential file lmp.flare with DATE: Thu

# compute unc all flare/std/atom L_inv_lmp.flare sparse_desc_lmp.flare
# compute MaxUnc all reduce max c_unc

mass 1 12.011000
mass 2 28.085000

thermo_style custom step temp press cpu pxx pyy pzz pxy pxz pyz ke pe etotal vol lx ly lz atoms    #c_MaxUnc
thermo 1000
timestep 0.0005
restart 100000 restart_*.dat

#################### Equilibrate at P and T_es ##############################
velocity all create $T 41928459 rot yes dist gaussian
velocity all create 3200 41928459 rot yes dist gaussian
fix mom all momentum 1000 linear 1 1 1 angular

fix 1 all npt temp $T $T $(100.0*dt) iso $P $P $(1000.0*dt)
fix 1 all npt temp 3200 $T $(100.0*dt) iso $P $P $(1000.0*dt)
fix 1 all npt temp 3200 3200 $(100.0*dt) iso $P $P $(1000.0*dt)
fix 1 all npt temp 3200 3200 0.050000000000000002776 iso $P $P $(1000.0*dt)
fix 1 all npt temp 3200 3200 0.050000000000000002776 iso 600000 $P $(1000.0*dt)
fix 1 all npt temp 3200 3200 0.050000000000000002776 iso 600000 600000 $(1000.0*dt)
fix 1 all npt temp 3200 3200 0.050000000000000002776 iso 600000 600000 0.5
dump 1 all custom 1000 1equil.bin id type x y z vx vy vz
run   10000 # report performance
  update every 1 steps, delay 10 steps, check yes
Step          Temp          Press           CPU            Pxx            Pyy            Pzz            Pxy            Pxz            Pyz           KinEng         PotEng         TotEng         Volume           Lx             Ly             Lz          Atoms
0   3200           62295.48       0              61920.045      62313.853      62652.542     -790.80119      8.8236366     -494.42354      6619.3603     -4000.2205      2619.1398      167941.93      43.790145      43.790145      87.58029           16004
Averages over the last 6 of 11 rows, steps 5000 to 10000:
Temp Press Pxx Pyy Pzz Pxy Pxz Pyz KinEng PotEng TotEng Volume Lx Ly Lz Atoms
3204.69 599907 599990 600730 599001 2320.74 -2092.65 -212.277 6629.06 6820.16 13449.2 141808 41.3895 41.3895 82.7791 16004
Loop time of 66.8969 on 8 procs for 10000 steps with 16004 atoms

run  990000
Step          Temp          Press           CPU            Pxx            Pyy            Pzz            Pxy            Pxz            Pyz           KinEng         PotEng         TotEng         Volume           Lx             Ly             Lz          Atoms
10000   3230.5481      598756.88      0              596811.94      599921         599537.7      -171.84797      3417.0713      1662.5761      6682.5505      6770.8867      13453.437      141816.64      41.390347      41.390347      82.780694          16004
Averages over the last 496 of 991 rows, steps 505000 to 1000000:
Temp Press Pxx Pyy Pzz Pxy Pxz Pyz KinEng PotEng TotEng Volume Lx Ly Lz Atoms
3199.12 599963 599898 599997 599995 -21.5057 -6.04033 42.8042 6617.55 6798.11 13415.7 141787 41.3875 41.3875 82.775 16004
Loop time of 6615.5 on 8 procs for 990000 steps with 16004 atoms

unfix 1
undump 1

#################### Fix half atoms along z-axis, heat the other half #################
region middle block INF INF INF INF 22.0 66.0
group mobile region middle
8538 atoms in group mobile
fix 2 mobile npt temp $T 5000 $(100.0*dt) z $P $P $(1000.0*dt)
fix 2 mobile npt temp 3200 5000 $(100.0*dt) z $P $P $(1000.0*dt)
fix 2 mobile npt temp 3200 5000 0.050000000000000002776 z $P $P $(1000.0*dt)
fix 2 mobile npt temp 3200 5000 0.050000000000000002776 z 600000 $P $(1000.0*dt)
fix 2 mobile npt temp 3200 5000 0.050000000000000002776 z 600000 600000 $(1000.0*dt)
fix 2 mobile npt temp 3200 5000 0.050000000000000002776 z 600000 600000 0.5
dump 2 all custom 1000 2heathalf.bin id type x y z vx vy vz
run  1000000
Step          Temp          Press           CPU            Pxx            Pyy            Pzz            Pxy            Pxz            Pyz           KinEng         PotEng         TotEng         Volume           Lx             Ly             Lz          Atoms
1000000   3199.7093      605619.11      0              604809.25      605485.33      606562.77      439.4638      -1916.7183      1497.1953      6618.759       6800.8885      13419.648      141546.12      41.364012      41.364012      82.728025          16004
Averages over the last 501 of 1001 rows, steps 1500000 to 2000000:
Temp Press Pxx Pyy Pzz Pxy Pxz Pyz KinEng PotEng TotEng Volume Lx Ly Lz Atoms
4548.89 604888 606238 608515 599910 232.798 -1491.01 1578.66 9409.62 18227.8 27637.5 143006 41.364 41.364 83.5814 16004
Loop time of 7045.36 on 8 procs for 1000000 steps with 16004 atoms

unfix 2
undump 2

#################### Cool down the hot half to T_es ##############################
fix 3 mobile npt temp 5000 $T $(100.0*dt) z $P $P $(1000.0*dt)
fix 3 mobile npt temp 5000 3200 $(100.0*dt) z $P $P $(1000.0*dt)
fix 3 mobile npt temp 5000 3200 0.050000000000000002776 z $P $P $(1000.0*dt)
fix 3 mobile npt temp 5000 3200 0.050000000000000002776 z 600000 $P $(1000.0*dt)
fix 3 mobile npt temp 5000 3200 0.050000000000000002776 z 600000 600000 $(1000.0*dt)
fix 3 mobile npt temp 5000 3200 0.050000000000000002776 z 600000 600000 0.5
dump 3 all custom 1000 3coolhalf.bin id type x y z vx vy vz
run  1000000
Step          Temp          Press           CPU            Pxx            Pyy            Pzz            Pxy            Pxz            Pyz           KinEng         PotEng         TotEng         Volume           Lx             Ly             Lz          Atoms
2000000   4974.1515      606128.32      0              606636.74      612241.83      599506.41      393.25275     -1373.5687      1550.4933      10289.282      18828.183      29117.465      143913.43      41.364012      41.364012      84.111621          16004
Averages over the last 501 of 1001 rows, steps 2500000 to 3000000:
Temp Press Pxx Pyy Pzz Pxy Pxz Pyz KinEng PotEng TotEng Volume Lx Ly Lz Atoms
3649.12 597753 595503 597686 600070 518.357 -1419.32 1603.94 7548.39 15792.3 23340.7 141327 41.364 41.364 82.5999 16004
Loop time of 7486.77 on 8 procs for 1000000 steps with 16004 atoms

unfix 3
undump 3

#################### Whole system relax in the nph ensemble at P ######################
fix 4 all nph iso $P $P $(1000.0*dt)
fix 4 all nph iso 600000 $P $(1000.0*dt)
fix 4 all nph iso 600000 600000 $(1000.0*dt)
fix 4 all nph iso 600000 600000 0.5
dump 4 all custom 1000 4nph.bin id type x y z vx vy vz
run 1000000
Step          Temp          Press           CPU            Pxx            Pyy            Pzz            Pxy            Pxz            Pyz           KinEng         PotEng         TotEng         Volume           Lx             Ly             Lz          Atoms
3000000   3185.8468      597165.75      0              595345.16      597820.59      598331.51      598.1403       80.482382      3074.9077      6590.0836      9972.2645      16562.348      141081.64      41.364012      41.364012      82.456552          16004
Averages over the last 501 of 1001 rows, steps 3500000 to 4000000:
Temp Press Pxx Pyy Pzz Pxy Pxz Pyz KinEng PotEng TotEng Volume Lx Ly Lz Atoms
3600.01 599989 598307 598016 603645 202.855 117.492 821.915 7446.8 8360.82 15807.6 142176 41.4707 41.4707 82.6691 16004
Loop time of 7495.38 on 8 procs for 1000000 steps with 16004 atoms
