atom_style atomic
units metal
boundary p p p
#atom_modify sort 0 0.0
newton on

read_data data.lammps
Reading data file ...
  orthogonal box = (0 0 0) to (43.790145 43.790145 87.58029)
  reading atoms ...
  16004 atoms
# replicate 10 10 20

### interactions

pair_style flare
pair_coeff * * lmp.flare
Reading potential file lmp.flare with DATE: Thu

# compute unc all flare/std/atom L_inv_lmp.flare sparse_desc_lmp.flare
# compute MaxUnc all reduce max c_unc

mass 1 12.011000
mass 2 28.085000

thermo_style custom step temp press cpu pxx pyy pzz pxy pxz pyz ke pe etotal vol lx ly lz atoms    #c_MaxUnc
thermo 1000
timestep 0.0005
restart 100000 restart_*.dat

#################### Equilibrate at P and T_es ##############################
velocity all create $T 41928459 rot yes dist gaussian
velocity all create 3600 41928459 rot yes dist gaussian
fix mom all momentum 1000 linear 1 1 1 angular

fix 1 all npt temp $T $T $(100.0*dt) iso $P $P $(1000.0*dt)
fix 1 all npt temp 3600 $T $(100.0*dt) iso $P $P $(1000.0*dt)
fix 1 all npt temp 3600 3600 $(100.0*dt) iso $P $P $(1000.0*dt)
fix 1 all npt temp 3600 3600 0.050000000000000002776 iso $P $P $(1000.0*dt)
fix 1 all npt temp 3600 3600 0.050000000000000002776 iso 100000 $P $(1000.0*dt)
fix 1 all npt temp 3600 3600 0.050000000000000002776 iso 100000 100000 $(1000.0*dt)
fix 1 all npt temp 3600 3600 0.050000000000000002776 iso 100000 100000 0.5
dump 1 all custom 1000 1equil.bin id type x y z vx vy vz
run   10000 # report performance
  update every 1 steps, delay 10 steps, check yes
Step          Temp          Press           CPU            Pxx            Pyy            Pzz            Pxy            Pxz            Pyz           KinEng         PotEng         TotEng         Volume           Lx             Ly             Lz          Atoms
0   3600           67557.906      0              67141.204      67594.979      67937.535     -846.34414      34.024028     -558.57611      7446.7804     -4000.2205      3446.5599      167941.93      43.790145      43.790145      87.58029           16004
Averages over the last 6 of 11 rows, steps 5000 to 10000:
Temp Press Pxx Pyy Pzz Pxy Pxz Pyz KinEng PotEng TotEng Volume Lx Ly Lz Atoms
3613.91 101558 101256 101551 101867 801.761 658.238 -789.227 7475.55 4377.21 11852.8 171104 44.0633 44.0633 88.1265 16004
Loop time of 62.8873 on 8 procs for 10000 steps with 16004 atoms

run  990000
Step          Temp          Press           CPU            Pxx            Pyy            Pzz            Pxy            Pxz            Pyz           KinEng         PotEng         TotEng         Volume           Lx             Ly             Lz          Atoms
10000   3627.8427      99409.294      0              99484.906      100104.84      98638.136      1442.7914     -392.23741     -1523.2116      7504.3743      4422.0139      11926.388      171328.02      44.082492      44.082492      88.164983          16004
Averages over the last 496 of 991 rows, steps 505000 to 1000000:
Temp Press Pxx Pyy Pzz Pxy Pxz Pyz KinEng PotEng TotEng Volume Lx Ly Lz Atoms
3600.24 100104 100066 100145 100101 -42.9746 -32.139 -10.1293 7447.27 4375.27 11822.5 171167 44.0686 44.0686 88.1373 16004
Loop time of 6268.08 on 8 procs for 990000 steps with 16004 atoms

unfix 1
undump 1

#################### Fix half atoms along z-axis, heat the other half #################
region middle block INF INF INF INF 22.0 66.0
group mobile region middle
8010 atoms in group mobile
fix 2 mobile npt temp $T 5000 $(100.0*dt) z $P $P $(1000.0*dt)
fix 2 mobile npt temp 3600 5000 $(100.0*dt) z $P $P $(1000.0*dt)
fix 2 mobile npt temp 3600 5000 0.050000000000000002776 z $P $P $(1000.0*dt)
fix 2 mobile npt temp 3600 5000 0.050000000000000002776 z 100000 $P $(1000.0*dt)
fix 2 mobile npt temp 3600 5000 0.050000000000000002776 z 100000 100000 $(1000.0*dt)
fix 2 mobile npt temp 3600 5000 0.050000000000000002776 z 100000 100000 0.5
dump 2 all custom 1000 2heathalf.bin id type x y z vx vy vz
run  1000000
Step          Temp          Press           CPU            Pxx            Pyy            Pzz            Pxy            Pxz            Pyz           KinEng         PotEng         TotEng         Volume           Lx             Ly             Lz          Atoms
1000000   3564.9215      101032.84      0              100024.54      101104.49      101969.48      222.19389      910.94916     -41.480829      7374.2186      4313.8995      11688.118      171047.68      44.058435      44.058435      88.11687           16004
Averages over the last 501 of 1001 rows, steps 1500000 to 2000000:
Temp Press Pxx Pyy Pzz Pxy Pxz Pyz KinEng PotEng TotEng Volume Lx Ly Lz Atoms
4648.57 129834 144739 144645 100119 1030.83 -151.516 -475.653 9615.79 14595.9 24211.7 178475 44.0584 44.0584 91.943 16004
Loop time of 6212.71 on 8 procs for 1000000 steps with 16004 atoms

unfix 2
undump 2

#################### Cool down the hot half to T_es ##############################
fix 3 mobile npt temp 5000 $T $(100.0*dt) z $P $P $(1000.0*dt)
fix 3 mobile npt temp 5000 3600 $(100.0*dt) z $P $P $(1000.0*dt)
fix 3 mobile npt temp 5000 3600 0.050000000000000002776 z $P $P $(1000.0*dt)
fix 3 mobile npt temp 5000 3600 0.050000000000000002776 z 100000 $P $(1000.0*dt)
fix 3 mobile npt temp 5000 3600 0.050000000000000002776 z 100000 100000 $(1000.0*dt)
fix 3 mobile npt temp 5000 3600 0.050000000000000002776 z 100000 100000 0.5
dump 3 all custom 1000 3coolhalf.bin id type x y z vx vy vz
run  1000000
Step          Temp          Press           CPU            Pxx            Pyy            Pzz            Pxy            Pxz            Pyz           KinEng         PotEng         TotEng         Volume           Lx             Ly             Lz          Atoms
2000000   5014.1337      134282.44      0              147938.19      152935.66      101973.46      226.85694      72.186707      302.6152       10371.987      15171.044      25543.031      179615.54      44.058435      44.058435      92.530682          16004
Averages over the last 501 of 1001 rows, steps 2500000 to 3000000:
Temp Press Pxx Pyy Pzz Pxy Pxz Pyz KinEng PotEng TotEng Volume Lx Ly Lz Atoms
3949.34 122158 133075 133052 100347 637.502 -127.124 -494.951 8169.4 13224.4 21393.8 176484 44.0584 44.0584 90.9172 16004
Loop time of 6202.71 on 8 procs for 1000000 steps with 16004 atoms

unfix 3
undump 3

#################### Whole system relax in the nph ensemble at P ######################
fix 4 all nph iso $P $P $(1000.0*dt)
fix 4 all nph iso 100000 $P $(1000.0*dt)
fix 4 all nph iso 100000 100000 $(1000.0*dt)
fix 4 all nph iso 100000 100000 0.5
dump 4 all custom 1000 4nph.bin id type x y z vx vy vz
run 1000000
Step          Temp          Press           CPU            Pxx            Pyy            Pzz            Pxy            Pxz            Pyz           KinEng         PotEng         TotEng         Volume           Lx             Ly             Lz          Atoms
3000000   3602.5513      115394.13      0              122843.32      123192.85      100146.23     -275.00512      1190.9643     -2628.4726      7452.0578      12037.556      19489.614      175339.59      44.058435      44.058435      90.327885          16004
Averages over the last 501 of 1001 rows, steps 3500000 to 4000000:
Temp Press Pxx Pyy Pzz Pxy Pxz Pyz KinEng PotEng TotEng Volume Lx Ly Lz Atoms
3210.43 100092 91499.1 101402 107374 -106 75.0449 35.1728 6640.93 11602.6 18243.5 190132 45.2638 45.2638 92.7991 16004
Loop time of 6829.11 on 8 procs for 1000000 steps with 16004 atoms
