atom_style atomic
units metal
boundary p p p
#atom_modify sort 0 0.0
newton on

read_data data.lammps
Reading data file ...
  orthogonal box = (0 0 0) to (43.790145 43.790145 87.58029)
  reading atoms ...
  16004 atoms
# replicate 10 10 20

### interactions

pair_style flare
pair_coeff * * lmp.flare
Reading potential file lmp.flare with DATE: Thu

# compute unc all flare/std/atom L_inv_lmp.flare sparse_desc_lmp.flare
# compute MaxUnc all reduce max c_unc

mass 1 12.011000
mass 2 28.085000

thermo_style custom step temp press cpu pxx pyy pzz pxy pxz pyz ke pe etotal vol lx ly lz atoms    #c_MaxUnc
thermo 1000
timestep 0.0005
restart 100000 restart_*.dat

#################### Equilibrate at P and T_es ##############################
velocity all create $T 41928459 rot yes dist gaussian
velocity all create 3800 41928459 rot yes dist gaussian
fix mom all momentum 1000 linear 1 1 1 angular

fix 1 all npt temp $T $T $(100.0*dt) iso $P $P $(1000.0*dt)
fix 1 all npt temp 3800 $T $(100.0*dt) iso $P $P $(1000.0*dt)
fix 1 all npt temp 3800 3800 $(100.0*dt) iso $P $P $(1000.0*dt)
fix 1 all npt temp 3800 3800 0.050000000000000002776 iso $P $P $(1000.0*dt)
fix 1 all npt temp 3800 3800 0.050000000000000002776 iso 900000 $P $(1000.0*dt)
fix 1 all npt temp 3800 3800 0.050000000000000002776 iso 900000 900000 $(1000.0*dt)
fix 1 all npt temp 3800 3800 0.050000000000000002776 iso 900000 900000 0.5
dump 1 all custom 1000 1equil.bin id type x y z vx vy vz
run   10000 # report performance
  update every 1 steps, delay 10 steps, check yes
Step          Temp          Press           CPU            Pxx            Pyy            Pzz            Pxy            Pxz            Pyz           KinEng         PotEng         TotEng         Volume           Lx             Ly             Lz          Atoms
0   3800           70189.119      0              69751.783      70235.542      70580.031     -874.11562      46.624223     -590.6524       7860.4904     -4000.2205      3860.2699      167941.93      43.790145      43.790145      87.58029           16004
Averages over the last 6 of 11 rows, steps 5000 to 10000:
Temp Press Pxx Pyy Pzz Pxy Pxz Pyz KinEng PotEng TotEng Volume Lx Ly Lz Atoms
3802.24 900422 900977 900885 899403 -1206.73 892.763 1810.01 7865.12 11916.7 19781.8 132797 40.4936 40.4936 80.9872 16004
Loop time of 71.1666 on 8 procs for 10000 steps with 16004 atoms

run  990000
Step          Temp          Press           CPU            Pxx            Pyy            Pzz            Pxy            Pxz            Pyz           KinEng         PotEng         TotEng         Volume           Lx             Ly             Lz          Atoms
10000   3809.9106      899087.37      0              899429.85      898835.04      898997.21     -3812.1764     -960.56773      3251.1893      7880.9909      11948.266      19829.257      132822.72      40.496187      40.496187      80.992373          16004
Averages over the last 496 of 991 rows, steps 505000 to 1000000:
Temp Press Pxx Pyy Pzz Pxy Pxz Pyz KinEng PotEng TotEng Volume Lx Ly Lz Atoms
3800.68 899897 899720 900032 899939 -52.9642 46.6192 126.995 7861.89 11883.7 19745.6 132778 40.4916 40.4916 80.9833 16004
Loop time of 7061.75 on 8 procs for 990000 steps with 16004 atoms

unfix 1
undump 1

#################### Fix half atoms along z-axis, heat the other half #################
region middle block INF INF INF INF 22.0 66.0
group mobile region middle
8670 atoms in group mobile
fix 2 mobile npt temp $T 5000 $(100.0*dt) z $P $P $(1000.0*dt)
fix 2 mobile npt temp 3800 5000 $(100.0*dt) z $P $P $(1000.0*dt)
fix 2 mobile npt temp 3800 5000 0.050000000000000002776 z $P $P $(1000.0*dt)
fix 2 mobile npt temp 3800 5000 0.050000000000000002776 z 900000 $P $(1000.0*dt)
fix 2 mobile npt temp 3800 5000 0.050000000000000002776 z 900000 900000 $(1000.0*dt)
fix 2 mobile npt temp 3800 5000 0.050000000000000002776 z 900000 900000 0.5
dump 2 all custom 1000 2heathalf.bin id type x y z vx vy vz
run  1000000
Step          Temp          Press           CPU            Pxx            Pyy            Pzz            Pxy            Pxz            Pyz           KinEng         PotEng         TotEng         Volume           Lx             Ly             Lz          Atoms
1000000   3780.0268      893747.7       0              892141.13      894568.75      894533.22      4803.0702      1604.7642      1859.5479      7819.1748      11793.867      19613.042      132914.3       40.505492      40.505492      81.010983          16004
Averages over the last 501 of 1001 rows, steps 1500000 to 2000000:
Temp Press Pxx Pyy Pzz Pxy Pxz Pyz KinEng PotEng TotEng Volume Lx Ly Lz Atoms
4700.16 891416 885097 889061 900090 799.81 2911.13 1013.46 9722.51 22503.9 32226.4 131930 40.5055 40.5055 80.4109 16004
Loop time of 7732.97 on 8 procs for 1000000 steps with 16004 atoms

unfix 2
undump 2

#################### Cool down the hot half to T_es ##############################
fix 3 mobile npt temp 5000 $T $(100.0*dt) z $P $P $(1000.0*dt)
fix 3 mobile npt temp 5000 3800 $(100.0*dt) z $P $P $(1000.0*dt)
fix 3 mobile npt temp 5000 3800 0.050000000000000002776 z $P $P $(1000.0*dt)
fix 3 mobile npt temp 5000 3800 0.050000000000000002776 z 900000 $P $(1000.0*dt)
fix 3 mobile npt temp 5000 3800 0.050000000000000002776 z 900000 900000 $(1000.0*dt)
fix 3 mobile npt temp 5000 3800 0.050000000000000002776 z 900000 900000 0.5
dump 3 all custom 1000 3coolhalf.bin id type x y z vx vy vz
run  1000000
Step          Temp          Press           CPU            Pxx            Pyy            Pzz            Pxy            Pxz            Pyz           KinEng         PotEng         TotEng         Volume           Lx             Ly             Lz          Atoms
2000000   4983.1005      895133.33      0              889883.04      894946.6       900570.37     -3313.7179      3626.4558     -2677.867       10307.793      22897.048      33204.841      132454.9       40.505492      40.505492      80.73098           16004
Averages over the last 501 of 1001 rows, steps 2500000 to 3000000:
Temp Press Pxx Pyy Pzz Pxy Pxz Pyz KinEng PotEng TotEng Volume Lx Ly Lz Atoms
4099.84 887381 879122 882942 900080 687.176 2872.32 1075.89 8480.72 21413.1 29893.8 130897 40.5055 40.5055 79.7813 16004
Loop time of 8112.52 on 8 procs for 1000000 steps with 16004 atoms

unfix 3
undump 3

#################### Whole system relax in the nph ensemble at P ######################
fix 4 all nph iso $P $P $(1000.0*dt)
fix 4 all nph iso 900000 $P $(1000.0*dt)
fix 4 all nph iso 900000 900000 $(1000.0*dt)
fix 4 all nph iso 900000 900000 0.5
dump 4 all custom 1000 4nph.bin id type x y z vx vy vz
run 1000000
Step          Temp          Press           CPU            Pxx            Pyy            Pzz            Pxy            Pxz            Pyz           KinEng         PotEng         TotEng         Volume           Lx             Ly             Lz          Atoms
3000000   3853.541       885840.57      0              875077.56      880614.12      901830.03      119.46707      4189.4331      84.278424      7971.2427      20515.619      28486.862      130309.45      40.505492      40.505492      79.423331          16004
Averages over the last 501 of 1001 rows, steps 3500000 to 4000000:
Temp Press Pxx Pyy Pzz Pxy Pxz Pyz KinEng PotEng TotEng Volume Lx Ly Lz Atoms
4501.28 899826 891765 891922 915792 45650.5 -44.1107 202.512 9311.12 23978.7 33289.8 120979 39.5147 39.5147 77.4806 16004
Loop time of 7855.12 on 8 procs for 1000000 steps with 16004 atoms
