atom_style atomic
units metal
boundary p p p
#atom_modify sort 0 0.0
newton on

read_data data.lammps
Reading data file ...
  orthogonal box = (0 0 0) to (43.790145 43.790145 87.58029)
  reading atoms ...
  16004 atoms
# replicate 10 10 20

### interactions

pair_style flare
pair_coeff * * lmp.flare
Reading potential file lmp.flare with DATE: Thu

# compute unc all flare/std/atom L_inv_lmp.flare sparse_desc_lmp.flare
# compute MaxUnc all reduce max c_unc

mass 1 12.011000
mass 2 28.085000

thermo_style custom step temp press cpu pxx pyy pzz pxy pxz pyz ke pe etotal vol lx ly lz atoms    #c_MaxUnc
thermo 1000
timestep 0.0005
restart 100000 restart_*.dat

#################### Equilibrate at P and T_es ##############################
velocity all create $T 41928459 rot yes dist gaussian
velocity all create 2800 41928459 rot yes dist gaussian
fix mom all momentum 1000 linear 1 1 1 angular

fix 1 all npt temp $T $T $(100.0*dt) iso $P $P $(1000.0*dt)
fix 1 all npt temp 2800 $T $(100.0*dt) iso $P $P $(1000.0*dt)
fix 1 all npt temp 2800 2800 $(100.0*dt) iso $P $P $(1000.0*dt)
fix 1 all npt temp 2800 2800 0.050000000000000002776 iso $P $P $(1000.0*dt)
fix 1 all npt temp 2800 2800 0.050000000000000002776 iso 100000 $P $(1000.0*dt)
fix 1 all npt temp 2800 2800 0.050000000000000002776 iso 100000 100000 $(1000.0*dt)
fix 1 all npt temp 2800 2800 0.050000000000000002776 iso 100000 100000 0.5
dump 1 all custom 1000 1equil.bin id type x y z vx vy vz
run   10000 # report performance
  update every 1 steps, delay 10 steps, check yes
Step          Temp          Press           CPU            Pxx            Pyy            Pzz            Pxy            Pxz            Pyz           KinEng         PotEng         TotEng         Volume           Lx             Ly             Lz          Atoms
0   2800           57033.054      0              56698.886      57032.726      57367.549     -735.25824     -16.376755     -430.27097      5791.9403     -4000.2205      1791.7198      167941.93      43.790145      43.790145      87.58029           16004
Averages over the last 6 of 11 rows, steps 5000 to 10000:
Temp Press Pxx Pyy Pzz Pxy Pxz Pyz KinEng PotEng TotEng Volume Lx Ly Lz Atoms
2797.33 98972.8 99085.1 99124.4 98708.9 -881.213 524.821 523.476 5786.42 2259.24 8045.66 168728 43.8583 43.8583 87.7166 16004
Loop time of 63.1449 on 8 procs for 10000 steps with 16004 atoms

run  990000
Step          Temp          Press           CPU            Pxx            Pyy            Pzz            Pxy            Pxz            Pyz           KinEng         PotEng         TotEng         Volume           Lx             Ly             Lz          Atoms
10000   2780.8246      101554.72      0              101783.86      102196.39      100683.9      -1252.8216     -899.80325      509.50904      5752.2749      2291.8875      8044.1624      168542.74      43.842302      43.842302      87.684604          16004
Averages over the last 496 of 991 rows, steps 505000 to 1000000:
Temp Press Pxx Pyy Pzz Pxy Pxz Pyz KinEng PotEng TotEng Volume Lx Ly Lz Atoms
2800.51 100073 100072 100056 100092 38.6018 -55.2986 81.9241 5792.99 2253.53 8046.51 168644 43.851 43.851 87.7021 16004
Loop time of 6264.6 on 8 procs for 990000 steps with 16004 atoms

unfix 1
undump 1

#################### Fix half atoms along z-axis, heat the other half #################
region middle block INF INF INF INF 22.0 66.0
group mobile region middle
8032 atoms in group mobile
fix 2 mobile npt temp $T 5000 $(100.0*dt) z $P $P $(1000.0*dt)
fix 2 mobile npt temp 2800 5000 $(100.0*dt) z $P $P $(1000.0*dt)
fix 2 mobile npt temp 2800 5000 0.050000000000000002776 z $P $P $(1000.0*dt)
fix 2 mobile npt temp 2800 5000 0.050000000000000002776 z 100000 $P $(1000.0*dt)
fix 2 mobile npt temp 2800 5000 0.050000000000000002776 z 100000 100000 $(1000.0*dt)
fix 2 mobile npt temp 2800 5000 0.050000000000000002776 z 100000 100000 0.5
dump 2 all custom 1000 2heathalf.bin id type x y z vx vy vz
run  1000000
Step          Temp          Press           CPU            Pxx            Pyy            Pzz            Pxy            Pxz            Pyz           KinEng         PotEng         TotEng         Volume           Lx             Ly             Lz          Atoms
1000000   2806.5482      100415.8       0              100728.22      100131.99      100387.21     -490.55803     -457.98726     -2720.191       5805.4856      2295.7036      8101.1892      168699.2       43.855865      43.855865      87.711729          16004
Averages over the last 501 of 1001 rows, steps 1500000 to 2000000:
Temp Press Pxx Pyy Pzz Pxy Pxz Pyz KinEng PotEng TotEng Volume Lx Ly Lz Atoms
4447.9 134973 152543 152472 99903.6 386.779 -1322.56 -795.673 9200.7 13897.8 23098.5 176865 43.8559 43.8559 91.9574 16004
Loop time of 6266.7 on 8 procs for 1000000 steps with 16004 atoms

unfix 2
undump 2

#################### Cool down the hot half to T_es ##############################
fix 3 mobile npt temp 5000 $T $(100.0*dt) z $P $P $(1000.0*dt)
fix 3 mobile npt temp 5000 2800 $(100.0*dt) z $P $P $(1000.0*dt)
fix 3 mobile npt temp 5000 2800 0.050000000000000002776 z $P $P $(1000.0*dt)
fix 3 mobile npt temp 5000 2800 0.050000000000000002776 z 100000 $P $(1000.0*dt)
fix 3 mobile npt temp 5000 2800 0.050000000000000002776 z 100000 100000 $(1000.0*dt)
fix 3 mobile npt temp 5000 2800 0.050000000000000002776 z 100000 100000 0.5
dump 3 all custom 1000 3coolhalf.bin id type x y z vx vy vz
run  1000000
Step          Temp          Press           CPU            Pxx            Pyy            Pzz            Pxy            Pxz            Pyz           KinEng         PotEng         TotEng         Volume           Lx             Ly             Lz          Atoms
2000000   5051.6103      144000.96      0              164542.03      163908.77      103552.07      370.54397     -1873.9419      754.28803      10449.509      14666.525      25116.034      178143.07      43.855865      43.855865      92.62188           16004
Averages over the last 501 of 1001 rows, steps 2500000 to 3000000:
Temp Press Pxx Pyy Pzz Pxy Pxz Pyz KinEng PotEng TotEng Volume Lx Ly Lz Atoms
3349.36 119824 129741 129720 100009 -533.475 -1471.14 -859.055 6928.32 10519.2 17447.6 173644 43.8559 43.8559 90.2825 16004
Loop time of 6311.52 on 8 procs for 1000000 steps with 16004 atoms

unfix 3
undump 3

#################### Whole system relax in the nph ensemble at P ######################
fix 4 all nph iso $P $P $(1000.0*dt)
fix 4 all nph iso 100000 $P $(1000.0*dt)
fix 4 all nph iso 100000 100000 $(1000.0*dt)
fix 4 all nph iso 100000 100000 0.5
dump 4 all custom 1000 4nph.bin id type x y z vx vy vz
run 1000000
Step          Temp          Press           CPU            Pxx            Pyy            Pzz            Pxy            Pxz            Pyz           KinEng         PotEng         TotEng         Volume           Lx             Ly             Lz          Atoms
3000000   2811.5668      104544.25      0              107359.91      105874.77      100398.08     -1350.0033     -1311.7982     -1072.8703      5815.8668      4319.4678      10135.335      171042.93      43.855865      43.855865      88.930302          16004
Averages over the last 501 of 1001 rows, steps 3500000 to 4000000:
Temp Press Pxx Pyy Pzz Pxy Pxz Pyz KinEng PotEng TotEng Volume Lx Ly Lz Atoms
2939.99 99780.8 101484 101558 96300.4 -152.851 826.655 -419.254 6081.51 3756.29 9837.8 171139 43.8641 43.8641 88.9469 16004
Loop time of 7187.02 on 8 procs for 1000000 steps with 16004 atoms
