atom_style atomic
units metal
boundary p p p
#atom_modify sort 0 0.0
newton on

read_data data.lammps
Reading data file ...
  orthogonal box = (0 0 0) to (43.790145 43.790145 87.58029)
  reading atoms ...
  16004 atoms
# replicate 10 10 20

### interactions

pair_style flare
pair_coeff * * lmp.flare
Reading potential file lmp.flare with DATE: Thu

# compute unc all flare/std/atom L_inv_lmp.flare sparse_desc_lmp.flare
# compute MaxUnc all reduce max c_unc

mass 1 12.011000
mass 2 28.085000

thermo_style custom step temp press cpu pxx pyy pzz pxy pxz pyz ke pe etotal vol lx ly lz atoms    #c_MaxUnc
thermo 1000
timestep 0.0005
restart 100000 restart_*.dat

#################### Equilibrate at P and T_es ##############################
velocity all create $T 41928459 rot yes dist gaussian
velocity all create 3800 41928459 rot yes dist gaussian
fix mom all momentum 1000 linear 1 1 1 angular

fix 1 all npt temp $T $T $(100.0*dt) iso $P $P $(1000.0*dt)
fix 1 all npt temp 3800 $T $(100.0*dt) iso $P $P $(1000.0*dt)
fix 1 all npt temp 3800 3800 $(100.0*dt) iso $P $P $(1000.0*dt)
fix 1 all npt temp 3800 3800 0.050000000000000002776 iso $P $P $(1000.0*dt)
fix 1 all npt temp 3800 3800 0.050000000000000002776 iso 300000 $P $(1000.0*dt)
fix 1 all npt temp 3800 3800 0.050000000000000002776 iso 300000 300000 $(1000.0*dt)
fix 1 all npt temp 3800 3800 0.050000000000000002776 iso 300000 300000 0.5
dump 1 all custom 1000 1equil.bin id type x y z vx vy vz
run   10000 # report performance
  update every 1 steps, delay 10 steps, check yes
Step          Temp          Press           CPU            Pxx            Pyy            Pzz            Pxy            Pxz            Pyz           KinEng         PotEng         TotEng         Volume           Lx             Ly             Lz          Atoms
0   3800           70189.119      0              69751.783      70235.542      70580.031     -874.11562      46.624223     -590.6524       7860.4904     -4000.2205      3860.2699      167941.93      43.790145      43.790145      87.58029           16004
Averages over the last 6 of 11 rows, steps 5000 to 10000:
Temp Press Pxx Pyy Pzz Pxy Pxz Pyz KinEng PotEng TotEng Volume Lx Ly Lz Atoms
3785.41 300504 300248 300879 300386 109.362 784.066 -575.729 7830.31 5434.15 13264.5 156967 42.8147 42.8147 85.6294 16004
Loop time of 68.9389 on 8 procs for 10000 steps with 16004 atoms

run  990000
Step          Temp          Press           CPU            Pxx            Pyy            Pzz            Pxy            Pxz            Pyz           KinEng         PotEng         TotEng         Volume           Lx             Ly             Lz          Atoms
10000   3764.7879      303421.37      0              304248.41      302555.26      303460.46      584.05632     -823.54867      2240.538       7787.6524      5408.0974      13195.75       156794.43      42.798992      42.798992      85.597984          16004
Averages over the last 496 of 991 rows, steps 505000 to 1000000:
Temp Press Pxx Pyy Pzz Pxy Pxz Pyz KinEng PotEng TotEng Volume Lx Ly Lz Atoms
3802 300486 300471 300470 300515 37.7507 217.657 -134.639 7864.64 5399.73 13264.4 156992 42.8169 42.8169 85.6339 16004
Loop time of 6852.16 on 8 procs for 990000 steps with 16004 atoms

unfix 1
undump 1

#################### Fix half atoms along z-axis, heat the other half #################
region middle block INF INF INF INF 22.0 66.0
group mobile region middle
8210 atoms in group mobile
fix 2 mobile npt temp $T 5000 $(100.0*dt) z $P $P $(1000.0*dt)
fix 2 mobile npt temp 3800 5000 $(100.0*dt) z $P $P $(1000.0*dt)
fix 2 mobile npt temp 3800 5000 0.050000000000000002776 z $P $P $(1000.0*dt)
fix 2 mobile npt temp 3800 5000 0.050000000000000002776 z 300000 $P $(1000.0*dt)
fix 2 mobile npt temp 3800 5000 0.050000000000000002776 z 300000 300000 $(1000.0*dt)
fix 2 mobile npt temp 3800 5000 0.050000000000000002776 z 300000 300000 0.5
dump 2 all custom 1000 2heathalf.bin id type x y z vx vy vz
run  1000000
Step          Temp          Press           CPU            Pxx            Pyy            Pzz            Pxy            Pxz            Pyz           KinEng         PotEng         TotEng         Volume           Lx             Ly             Lz          Atoms
1000000   3827.1043      296751.63      0              296155.97      297855.04      296243.88     -1638.6933      2483.6429      217.69717      7916.5569      5300.0861      13216.643      157214.15      42.837148      42.837148      85.674295          16004
Averages over the last 501 of 1001 rows, steps 1500000 to 2000000:
Temp Press Pxx Pyy Pzz Pxy Pxz Pyz KinEng PotEng TotEng Volume Lx Ly Lz Atoms
4698.49 313495 319184 321121 300181 397.077 930.596 -1071.63 9719.07 15477.5 25196.5 160693 42.8371 42.8371 87.5699 16004
Loop time of 6942.77 on 8 procs for 1000000 steps with 16004 atoms

unfix 2
undump 2

#################### Cool down the hot half to T_es ##############################
fix 3 mobile npt temp 5000 $T $(100.0*dt) z $P $P $(1000.0*dt)
fix 3 mobile npt temp 5000 3800 $(100.0*dt) z $P $P $(1000.0*dt)
fix 3 mobile npt temp 5000 3800 0.050000000000000002776 z $P $P $(1000.0*dt)
fix 3 mobile npt temp 5000 3800 0.050000000000000002776 z 300000 $P $(1000.0*dt)
fix 3 mobile npt temp 5000 3800 0.050000000000000002776 z 300000 300000 $(1000.0*dt)
fix 3 mobile npt temp 5000 3800 0.050000000000000002776 z 300000 300000 0.5
dump 3 all custom 1000 3coolhalf.bin id type x y z vx vy vz
run  1000000
Step          Temp          Press           CPU            Pxx            Pyy            Pzz            Pxy            Pxz            Pyz           KinEng         PotEng         TotEng         Volume           Lx             Ly             Lz          Atoms
2000000   5034.0196      320686.49      0              327287.2       329302.72      305469.56     -664.33774      365.15817      259.48802      10413.122      15980.076      26393.198      161112.67      42.837148      42.837148      87.798805          16004
Averages over the last 501 of 1001 rows, steps 2500000 to 3000000:
Temp Press Pxx Pyy Pzz Pxy Pxz Pyz KinEng PotEng TotEng Volume Lx Ly Lz Atoms
4099.78 307111 309612 311607 300114 373.599 914.529 -1226.57 8480.61 14319.8 22800.4 159219 42.8371 42.8371 86.7666 16004
Loop time of 6933.7 on 8 procs for 1000000 steps with 16004 atoms

unfix 3
undump 3

#################### Whole system relax in the nph ensemble at P ######################
fix 4 all nph iso $P $P $(1000.0*dt)
fix 4 all nph iso 300000 $P $(1000.0*dt)
fix 4 all nph iso 300000 300000 $(1000.0*dt)
fix 4 all nph iso 300000 300000 0.5
dump 4 all custom 1000 4nph.bin id type x y z vx vy vz
run 1000000
Step          Temp          Press           CPU            Pxx            Pyy            Pzz            Pxy            Pxz            Pyz           KinEng         PotEng         TotEng         Volume           Lx             Ly             Lz          Atoms
3000000   3801.5062      304766.64      0              305342.55      307079.83      301877.53      835.20865      3164.8497     -1783.8385      7863.6059      13310.208      21173.813      158289.25      42.837148      42.837148      86.260174          16004
Averages over the last 501 of 1001 rows, steps 3500000 to 4000000:
Temp Press Pxx Pyy Pzz Pxy Pxz Pyz KinEng PotEng TotEng Volume Lx Ly Lz Atoms
3613.8 300096 297728 296847 305712 93.9305 -165.006 -131.803 7475.32 12916.9 20392.2 160568 43.0416 43.0416 86.672 16004
Loop time of 7683.53 on 8 procs for 1000000 steps with 16004 atoms
