atom_style atomic
units metal
boundary p p p
#atom_modify sort 0 0.0
newton on

read_data data.lammps
Reading data file ...
  orthogonal box = (0 0 0) to (43.790145 43.790145 87.58029)
  reading atoms ...
  16004 atoms
# replicate 10 10 20

### interactions

pair_style flare
pair_coeff * * lmp.flare
Reading potential file lmp.flare with DATE: Thu

# compute unc all flare/std/atom L_inv_lmp.flare sparse_desc_lmp.flare
# compute MaxUnc all reduce max c_unc

mass 1 12.011000
mass 2 28.085000

thermo_style custom step temp press cpu pxx pyy pzz pxy pxz pyz ke pe etotal vol lx ly lz atoms    #c_MaxUnc
thermo 1000
timestep 0.0005
restart 100000 restart_*.dat

#################### Equilibrate at P and T_es ##############################
velocity all create $T 41928459 rot yes dist gaussian
velocity all create 3200 41928459 rot yes dist gaussian
fix mom all momentum 1000 linear 1 1 1 angular

fix 1 all npt temp $T $T $(100.0*dt) iso $P $P $(1000.0*dt)
fix 1 all npt temp 3200 $T $(100.0*dt) iso $P $P $(1000.0*dt)
fix 1 all npt temp 3200 3200 $(100.0*dt) iso $P $P $(1000.0*dt)
fix 1 all npt temp 3200 3200 0.050000000000000002776 iso $P $P $(1000.0*dt)
fix 1 all npt temp 3200 3200 0.050000000000000002776 iso 300000 $P $(1000.0*dt)
fix 1 all npt temp 3200 3200 0.050000000000000002776 iso 300000 300000 $(1000.0*dt)
fix 1 all npt temp 3200 3200 0.050000000000000002776 iso 300000 300000 0.5
dump 1 all custom 1000 1equil.bin id type x y z vx vy vz
run   10000 # report performance
  update every 1 steps, delay 10 steps, check yes
Step          Temp          Press           CPU            Pxx            Pyy            Pzz            Pxy            Pxz            Pyz           KinEng         PotEng         TotEng         Volume           Lx             Ly             Lz          Atoms
0   3200           62295.48       0              61920.045      62313.853      62652.542     -790.80119      8.8236366     -494.42354      6619.3603     -4000.2205      2619.1398      167941.93      43.790145      43.790145      87.58029           16004
Averages over the last 6 of 11 rows, steps 5000 to 10000:
Temp Press Pxx Pyy Pzz Pxy Pxz Pyz KinEng PotEng TotEng Volume Lx Ly Lz Atoms
3208.82 300791 300334 300997 301044 974.816 44.375 -106.517 6637.61 3982.61 10620.2 155712 42.7003 42.7003 85.4005 16004
Loop time of 63.9371 on 8 procs for 10000 steps with 16004 atoms

run  990000
Step          Temp          Press           CPU            Pxx            Pyy            Pzz            Pxy            Pxz            Pyz           KinEng         PotEng         TotEng         Volume           Lx             Ly             Lz          Atoms
10000   3222.5869      300271.05      0              300564.45      299322.33      300926.37      1326.9926      1255.4944     -1423.6567      6666.0824      3983.0647      10649.147      155752.8       42.704006      42.704006      85.408013          16004
Averages over the last 496 of 991 rows, steps 505000 to 1000000:
Temp Press Pxx Pyy Pzz Pxy Pxz Pyz KinEng PotEng TotEng Volume Lx Ly Lz Atoms
3199.54 299978 300019 299892 300022 8.51093 116.889 34.7485 6618.42 3969.77 10588.2 155727 42.7017 42.7017 85.4033 16004
Loop time of 6332.99 on 8 procs for 990000 steps with 16004 atoms

unfix 1
undump 1

#################### Fix half atoms along z-axis, heat the other half #################
region middle block INF INF INF INF 22.0 66.0
group mobile region middle
8220 atoms in group mobile
fix 2 mobile npt temp $T 5000 $(100.0*dt) z $P $P $(1000.0*dt)
fix 2 mobile npt temp 3200 5000 $(100.0*dt) z $P $P $(1000.0*dt)
fix 2 mobile npt temp 3200 5000 0.050000000000000002776 z $P $P $(1000.0*dt)
fix 2 mobile npt temp 3200 5000 0.050000000000000002776 z 300000 $P $(1000.0*dt)
fix 2 mobile npt temp 3200 5000 0.050000000000000002776 z 300000 300000 $(1000.0*dt)
fix 2 mobile npt temp 3200 5000 0.050000000000000002776 z 300000 300000 0.5
dump 2 all custom 1000 2heathalf.bin id type x y z vx vy vz
run  1000000
Step          Temp          Press           CPU            Pxx            Pyy            Pzz            Pxy            Pxz            Pyz           KinEng         PotEng         TotEng         Volume           Lx             Ly             Lz          Atoms
1000000   3205.9428      300657.83      0              301295.11      299678.66      300999.72     -556.16955     -2882.6219      2016.5494      6631.6533      4040.058       10671.711      155741.65      42.702987      42.702987      85.405975          16004
Averages over the last 501 of 1001 rows, steps 1500000 to 2000000:
Temp Press Pxx Pyy Pzz Pxy Pxz Pyz KinEng PotEng TotEng Volume Lx Ly Lz Atoms
4548.42 319837 330408 329316 299788 -752.957 -967.059 745.182 9408.64 15150.4 24559 159878 42.703 42.703 87.6745 16004
Loop time of 6438.49 on 8 procs for 1000000 steps with 16004 atoms

unfix 2
undump 2

#################### Cool down the hot half to T_es ##############################
fix 3 mobile npt temp 5000 $T $(100.0*dt) z $P $P $(1000.0*dt)
fix 3 mobile npt temp 5000 3200 $(100.0*dt) z $P $P $(1000.0*dt)
fix 3 mobile npt temp 5000 3200 0.050000000000000002776 z $P $P $(1000.0*dt)
fix 3 mobile npt temp 5000 3200 0.050000000000000002776 z 300000 $P $(1000.0*dt)
fix 3 mobile npt temp 5000 3200 0.050000000000000002776 z 300000 300000 $(1000.0*dt)
fix 3 mobile npt temp 5000 3200 0.050000000000000002776 z 300000 300000 0.5
dump 3 all custom 1000 3coolhalf.bin id type x y z vx vy vz
run  1000000
Step          Temp          Press           CPU            Pxx            Pyy            Pzz            Pxy            Pxz            Pyz           KinEng         PotEng         TotEng         Volume           Lx             Ly             Lz          Atoms
2000000   5060.8021      329218.33      0              340756.23      341825.12      305073.64     -70.890091     -163.07024     -409.13062      10468.523      15794.88       26263.403      160709.37      42.702987      42.702987      88.130183          16004
Averages over the last 501 of 1001 rows, steps 2500000 to 3000000:
Temp Press Pxx Pyy Pzz Pxy Pxz Pyz KinEng PotEng TotEng Volume Lx Ly Lz Atoms
3649.71 309667 314845 313984 300170 -781.539 -767.825 818.128 7549.61 12679.8 20229.4 157630 42.703 42.703 86.4414 16004
Loop time of 6503.49 on 8 procs for 1000000 steps with 16004 atoms

unfix 3
undump 3

#################### Whole system relax in the nph ensemble at P ######################
fix 4 all nph iso $P $P $(1000.0*dt)
fix 4 all nph iso 300000 $P $(1000.0*dt)
fix 4 all nph iso 300000 300000 $(1000.0*dt)
fix 4 all nph iso 300000 300000 0.5
dump 4 all custom 1000 4nph.bin id type x y z vx vy vz
run 1000000
Step          Temp          Press           CPU            Pxx            Pyy            Pzz            Pxy            Pxz            Pyz           KinEng         PotEng         TotEng         Volume           Lx             Ly             Lz          Atoms
3000000   3174.7484      300627.85      0              301164.85      299390.63      301328.08     -645.5881      -1663.428      -699.32315      6567.1262      6725.3867      13292.513      156179.77      42.702987      42.702987      85.646233          16004
Averages over the last 501 of 1001 rows, steps 3500000 to 4000000:
Temp Press Pxx Pyy Pzz Pxy Pxz Pyz KinEng PotEng TotEng Volume Lx Ly Lz Atoms
3635.17 299938 301584 301703 296527 -30.1218 22.5834 55.6595 7519.53 5318.12 12837.6 156741 42.7541 42.7541 85.7487 16004
Loop time of 7406.93 on 8 procs for 1000000 steps with 16004 atoms
