atom_style atomic
units metal
boundary p p p
#atom_modify sort 0 0.0
newton on

read_data data.lammps
Reading data file ...
  orthogonal box = (0 0 0) to (43.790145 43.790145 87.58029)
  reading atoms ...
  16004 atoms
# replicate 10 10 20

### interactions

pair_style flare
pair_coeff * * lmp.flare
Reading potential file lmp.flare with DATE: Thu

# compute unc all flare/std/atom L_inv_lmp.flare sparse_desc_lmp.flare
# compute MaxUnc all reduce max c_unc

mass 1 12.011000
mass 2 28.085000

thermo_style custom step temp press cpu pxx pyy pzz pxy pxz pyz ke pe etotal vol lx ly lz atoms    #c_MaxUnc
thermo 1000
timestep 0.0005
restart 100000 restart_*.dat

#################### Equilibrate at P and T_es ##############################
velocity all create $T 41928459 rot yes dist gaussian
velocity all create 3400 41928459 rot yes dist gaussian
fix mom all momentum 1000 linear 1 1 1 angular

fix 1 all npt temp $T $T $(100.0*dt) iso $P $P $(1000.0*dt)
fix 1 all npt temp 3400 $T $(100.0*dt) iso $P $P $(1000.0*dt)
fix 1 all npt temp 3400 3400 $(100.0*dt) iso $P $P $(1000.0*dt)
fix 1 all npt temp 3400 3400 0.050000000000000002776 iso $P $P $(1000.0*dt)
fix 1 all npt temp 3400 3400 0.050000000000000002776 iso 900000 $P $(1000.0*dt)
fix 1 all npt temp 3400 3400 0.050000000000000002776 iso 900000 900000 $(1000.0*dt)
fix 1 all npt temp 3400 3400 0.050000000000000002776 iso 900000 900000 0.5
dump 1 all custom 1000 1equil.bin id type x y z vx vy vz
run   10000 # report performance
  update every 1 steps, delay 10 steps, check yes
Step          Temp          Press           CPU            Pxx            Pyy            Pzz            Pxy            Pxz            Pyz           KinEng         PotEng         TotEng         Volume           Lx             Ly             Lz          Atoms
0   3400           64926.693      0              64530.624      64954.416      65295.038     -818.57267      21.423832     -526.49983      7033.0703     -4000.2205      3032.8498      167941.93      43.790145      43.790145      87.58029           16004
Averages over the last 6 of 11 rows, steps 5000 to 10000:
Temp Press Pxx Pyy Pzz Pxy Pxz Pyz KinEng PotEng TotEng Volume Lx Ly Lz Atoms
3401.69 900544 901291 899776 900567 -686.807 343.119 -16.7436 7036.56 11034.2 18070.7 132451 40.4584 40.4584 80.9167 16004
Loop time of 67.4478 on 8 procs for 10000 steps with 16004 atoms

run  990000
Step          Temp          Press           CPU            Pxx            Pyy            Pzz            Pxy            Pxz            Pyz           KinEng         PotEng         TotEng         Volume           Lx             Ly             Lz          Atoms
10000   3383.4542      900808.26      0              901460.53      899430.5       901533.76      560.61703      1513.1512      1372.0988      6998.8445      11063.006      18061.851      132442.52      40.45751       40.45751       80.91502           16004
Averages over the last 496 of 991 rows, steps 505000 to 1000000:
Temp Press Pxx Pyy Pzz Pxy Pxz Pyz KinEng PotEng TotEng Volume Lx Ly Lz Atoms
3399.78 899988 900073 899900 899990 -224.032 -217.945 -114.64 7032.61 11016.2 18048.8 132442 40.4575 40.4575 80.915 16004
Loop time of 6690.29 on 8 procs for 990000 steps with 16004 atoms

unfix 1
undump 1

#################### Fix half atoms along z-axis, heat the other half #################
region middle block INF INF INF INF 22.0 66.0
group mobile region middle
8695 atoms in group mobile
fix 2 mobile npt temp $T 5000 $(100.0*dt) z $P $P $(1000.0*dt)
fix 2 mobile npt temp 3400 5000 $(100.0*dt) z $P $P $(1000.0*dt)
fix 2 mobile npt temp 3400 5000 0.050000000000000002776 z $P $P $(1000.0*dt)
fix 2 mobile npt temp 3400 5000 0.050000000000000002776 z 900000 $P $(1000.0*dt)
fix 2 mobile npt temp 3400 5000 0.050000000000000002776 z 900000 900000 $(1000.0*dt)
fix 2 mobile npt temp 3400 5000 0.050000000000000002776 z 900000 900000 0.5
dump 2 all custom 1000 2heathalf.bin id type x y z vx vy vz
run  1000000
Step          Temp          Press           CPU            Pxx            Pyy            Pzz            Pxy            Pxz            Pyz           KinEng         PotEng         TotEng         Volume           Lx             Ly             Lz          Atoms
1000000   3401.5512      909127.3       0              910650.51      908163         908568.38     -5104.1253     -640.35671     -2176.9318      7036.2791      11106.528      18142.807      132199.09      40.432707      40.432707      80.865414          16004
Averages over the last 501 of 1001 rows, steps 1500000 to 2000000:
Temp Press Pxx Pyy Pzz Pxy Pxz Pyz KinEng PotEng TotEng Volume Lx Ly Lz Atoms
4598.99 895527 893652 892834 900096 -600.161 2010.61 -3018.67 9513.24 22353.2 31866.5 131781 40.4327 40.4327 80.6097 16004
Loop time of 7283.56 on 8 procs for 1000000 steps with 16004 atoms

unfix 2
undump 2

#################### Cool down the hot half to T_es ##############################
fix 3 mobile npt temp 5000 $T $(100.0*dt) z $P $P $(1000.0*dt)
fix 3 mobile npt temp 5000 3400 $(100.0*dt) z $P $P $(1000.0*dt)
fix 3 mobile npt temp 5000 3400 0.050000000000000002776 z $P $P $(1000.0*dt)
fix 3 mobile npt temp 5000 3400 0.050000000000000002776 z 900000 $P $(1000.0*dt)
fix 3 mobile npt temp 5000 3400 0.050000000000000002776 z 900000 900000 $(1000.0*dt)
fix 3 mobile npt temp 5000 3400 0.050000000000000002776 z 900000 900000 0.5
dump 3 all custom 1000 3coolhalf.bin id type x y z vx vy vz
run  1000000
Step          Temp          Press           CPU            Pxx            Pyy            Pzz            Pxy            Pxz            Pyz           KinEng         PotEng         TotEng         Volume           Lx             Ly             Lz          Atoms
2000000   4987.0934      899209.85      0              897150.68      896276.16      904202.7      -2048.4239      6125.4367     -3903.3625      10316.053      22768.572      33084.625      132412.93      40.432707      40.432707      80.996224          16004
Averages over the last 501 of 1001 rows, steps 2500000 to 3000000:
Temp Press Pxx Pyy Pzz Pxy Pxz Pyz KinEng PotEng TotEng Volume Lx Ly Lz Atoms
3799.34 890318 885823 885156 899976 -432.672 2145.03 -3144.41 7859.12 20723.5 28582.6 130439 40.4327 40.4327 79.7887 16004
Loop time of 7686.71 on 8 procs for 1000000 steps with 16004 atoms

unfix 3
undump 3

#################### Whole system relax in the nph ensemble at P ######################
fix 4 all nph iso $P $P $(1000.0*dt)
fix 4 all nph iso 900000 $P $(1000.0*dt)
fix 4 all nph iso 900000 900000 $(1000.0*dt)
fix 4 all nph iso 900000 900000 0.5
dump 4 all custom 1000 4nph.bin id type x y z vx vy vz
run 1000000
Step          Temp          Press           CPU            Pxx            Pyy            Pzz            Pxy            Pxz            Pyz           KinEng         PotEng         TotEng         Volume           Lx             Ly             Lz          Atoms
3000000   3381.3495      892619.12      0              890868.31      883107.14      903881.92     -3374.5704      4263.1983     -6070.3931      6994.4908      18946.533      25941.024      129769.96      40.432707      40.432707      79.379534          16004
Averages over the last 501 of 1001 rows, steps 3500000 to 4000000:
Temp Press Pxx Pyy Pzz Pxy Pxz Pyz KinEng PotEng TotEng Volume Lx Ly Lz Atoms
4459.99 899935 905317 905381 889108 -58628.7 -116.161 73.0167 9225.7 22236.7 31462.4 119163 39.2997 39.2997 77.1551 16004
Loop time of 7542.14 on 8 procs for 1000000 steps with 16004 atoms
