atom_style atomic
units metal
boundary p p p
#atom_modify sort 0 0.0
newton on

read_data data.lammps
Reading data file ...
  orthogonal box = (0 0 0) to (43.790145 43.790145 87.58029)
  reading atoms ...
  16004 atoms
# replicate 10 10 20

### interactions

pair_style flare
pair_coeff * * lmp.flare
Reading potential file lmp.flare with DATE: Thu

# compute unc all flare/std/atom L_inv_lmp.flare sparse_desc_lmp.flare
# compute MaxUnc all reduce max c_unc

mass 1 12.011000
mass 2 28.085000

thermo_style custom step temp press cpu pxx pyy pzz pxy pxz pyz ke pe etotal vol lx ly lz atoms    #c_MaxUnc
thermo 1000
timestep 0.0005
restart 100000 restart_*.dat

#################### Equilibrate at P and T_es ##############################
velocity all create $T 41928459 rot yes dist gaussian
velocity all create 3200 41928459 rot yes dist gaussian
fix mom all momentum 1000 linear 1 1 1 angular

fix 1 all npt temp $T $T $(100.0*dt) iso $P $P $(1000.0*dt)
fix 1 all npt temp 3200 $T $(100.0*dt) iso $P $P $(1000.0*dt)
fix 1 all npt temp 3200 3200 $(100.0*dt) iso $P $P $(1000.0*dt)
fix 1 all npt temp 3200 3200 0.050000000000000002776 iso $P $P $(1000.0*dt)
fix 1 all npt temp 3200 3200 0.050000000000000002776 iso 900000 $P $(1000.0*dt)
fix 1 all npt temp 3200 3200 0.050000000000000002776 iso 900000 900000 $(1000.0*dt)
fix 1 all npt temp 3200 3200 0.050000000000000002776 iso 900000 900000 0.5
dump 1 all custom 1000 1equil.bin id type x y z vx vy vz
run   10000 # report performance
  update every 1 steps, delay 10 steps, check yes
Step          Temp          Press           CPU            Pxx            Pyy            Pzz            Pxy            Pxz            Pyz           KinEng         PotEng         TotEng         Volume           Lx             Ly             Lz          Atoms
0   3200           62295.48       0              61920.045      62313.853      62652.542     -790.80119      8.8236366     -494.42354      6619.3603     -4000.2205      2619.1398      167941.93      43.790145      43.790145      87.58029           16004
Averages over the last 6 of 11 rows, steps 5000 to 10000:
Temp Press Pxx Pyy Pzz Pxy Pxz Pyz KinEng PotEng TotEng Volume Lx Ly Lz Atoms
3206.67 900366 900128 901630 899340 -728.665 -559.729 846.493 6633.15 10605 17238.1 132274 40.4404 40.4404 80.8807 16004
Loop time of 72.8693 on 8 procs for 10000 steps with 16004 atoms

run  990000
Step          Temp          Press           CPU            Pxx            Pyy            Pzz            Pxy            Pxz            Pyz           KinEng         PotEng         TotEng         Volume           Lx             Ly             Lz          Atoms
10000   3186.0072      900932.8       0              900613.81      901656.85      900527.75     -3098.1248      942.2208       4003.6354      6590.4154      10615.391      17205.806      132232.26      40.436088      40.436088      80.872177          16004
Averages over the last 496 of 991 rows, steps 505000 to 1000000:
Temp Press Pxx Pyy Pzz Pxy Pxz Pyz KinEng PotEng TotEng Volume Lx Ly Lz Atoms
3198.75 900017 900034 900022 899995 83.9934 -7.15836 -9.93346 6616.77 10603.2 17220 132271 40.4401 40.4401 80.8801 16004
Loop time of 7251.19 on 8 procs for 990000 steps with 16004 atoms

unfix 1
undump 1

#################### Fix half atoms along z-axis, heat the other half #################
region middle block INF INF INF INF 22.0 66.0
group mobile region middle
8687 atoms in group mobile
fix 2 mobile npt temp $T 5000 $(100.0*dt) z $P $P $(1000.0*dt)
fix 2 mobile npt temp 3200 5000 $(100.0*dt) z $P $P $(1000.0*dt)
fix 2 mobile npt temp 3200 5000 0.050000000000000002776 z $P $P $(1000.0*dt)
fix 2 mobile npt temp 3200 5000 0.050000000000000002776 z 900000 $P $(1000.0*dt)
fix 2 mobile npt temp 3200 5000 0.050000000000000002776 z 900000 900000 $(1000.0*dt)
fix 2 mobile npt temp 3200 5000 0.050000000000000002776 z 900000 900000 0.5
dump 2 all custom 1000 2heathalf.bin id type x y z vx vy vz
run  1000000
Step          Temp          Press           CPU            Pxx            Pyy            Pzz            Pxy            Pxz            Pyz           KinEng         PotEng         TotEng         Volume           Lx             Ly             Lz          Atoms
1000000   3172.1291      898851.91      0              898685.51      898477.41      899392.79      467.51344      65.707657      555.90061      6561.7079      10663.752      17225.46       132318.58      40.444886      40.444886      80.889772          16004
Averages over the last 501 of 1001 rows, steps 1500000 to 2000000:
Temp Press Pxx Pyy Pzz Pxy Pxz Pyz KinEng PotEng TotEng Volume Lx Ly Lz Atoms
4550.11 894417 891579 891768 899906 1087.46 291.127 -1022.27 9412.13 22197.6 31609.7 131789 40.4449 40.4449 80.566 16004
Loop time of 7898.41 on 8 procs for 1000000 steps with 16004 atoms

unfix 2
undump 2

#################### Cool down the hot half to T_es ##############################
fix 3 mobile npt temp 5000 $T $(100.0*dt) z $P $P $(1000.0*dt)
fix 3 mobile npt temp 5000 3200 $(100.0*dt) z $P $P $(1000.0*dt)
fix 3 mobile npt temp 5000 3200 0.050000000000000002776 z $P $P $(1000.0*dt)
fix 3 mobile npt temp 5000 3200 0.050000000000000002776 z 900000 $P $(1000.0*dt)
fix 3 mobile npt temp 5000 3200 0.050000000000000002776 z 900000 900000 $(1000.0*dt)
fix 3 mobile npt temp 5000 3200 0.050000000000000002776 z 900000 900000 0.5
dump 3 all custom 1000 3coolhalf.bin id type x y z vx vy vz
run  1000000
Step          Temp          Press           CPU            Pxx            Pyy            Pzz            Pxy            Pxz            Pyz           KinEng         PotEng         TotEng         Volume           Lx             Ly             Lz          Atoms
2000000   4974.0085      896330.91      0              894227.76      898521.28      896243.68      3246.2915      1929.4133     -1493.1253      10288.986      22720.504      33009.489      132463.37      40.444886      40.444886      80.978281          16004
Averages over the last 501 of 1001 rows, steps 2500000 to 3000000:
Temp Press Pxx Pyy Pzz Pxy Pxz Pyz KinEng PotEng TotEng Volume Lx Ly Lz Atoms
3650.13 888421 882792 882492 899980 1197.16 367.394 -1249.96 7550.49 20262.6 27813.1 130306 40.4449 40.4449 79.6593 16004
Loop time of 8338.32 on 8 procs for 1000000 steps with 16004 atoms

unfix 3
undump 3

#################### Whole system relax in the nph ensemble at P ######################
fix 4 all nph iso $P $P $(1000.0*dt)
fix 4 all nph iso 900000 $P $(1000.0*dt)
fix 4 all nph iso 900000 900000 $(1000.0*dt)
fix 4 all nph iso 900000 900000 0.5
dump 4 all custom 1000 4nph.bin id type x y z vx vy vz
run 1000000
Step          Temp          Press           CPU            Pxx            Pyy            Pzz            Pxy            Pxz            Pyz           KinEng         PotEng         TotEng         Volume           Lx             Ly             Lz          Atoms
3000000   3197.4088      888032.07      0              882647.67      882967.32      898481.21      707.2324       331.09532     -3421.8331      6614.0002      17273.421      23887.421      129854.53      40.444886      40.444886      79.38343           16004
Averages over the last 501 of 1001 rows, steps 3500000 to 4000000:
Temp Press Pxx Pyy Pzz Pxy Pxz Pyz KinEng PotEng TotEng Volume Lx Ly Lz Atoms
4373.84 900112 919704 919913 860717 66500 -39.3337 -400.091 9047.5 21128.4 30175.9 117886 39.162 39.162 76.8655 16004
Loop time of 8053.14 on 8 procs for 1000000 steps with 16004 atoms
