atom_style atomic
units metal
boundary p p p
#atom_modify sort 0 0.0
newton on

read_data data.lammps
Reading data file ...
  orthogonal box = (0 0 0) to (3.89 3.89 3.89)
  reading atoms ...
  8 atoms
replicate 10 10 20
Replicating atoms ...
  orthogonal box = (0 0 0) to (38.9 38.9 77.8)
  16000 atoms
  replicate CPU = 0.016 seconds

### interactions

pair_style flare
pair_coeff * * lmp.flare
Reading potential file lmp.flare with DATE: Thu

# compute unc all flare/std/atom L_inv_lmp.flare sparse_desc_lmp.flare
# compute MaxUnc all reduce max c_unc

mass 1 12.011000
mass 2 28.085000

thermo_style custom step temp press cpu pxx pyy pzz pxy pxz pyz ke pe etotal vol lx ly lz atoms    #c_MaxUnc
thermo 1000
timestep 0.0005
restart 100000 restart_*.dat

#################### Equilibrate at P and T_es ##############################
velocity all create $T 41928459 rot yes dist gaussian
velocity all create 4400 41928459 rot yes dist gaussian
fix mom all momentum 1000 linear 1 1 1 angular

fix 1 all npt temp $T $T $(100.0*dt) iso $P $P $(1000.0*dt)
fix 1 all npt temp 4400 $T $(100.0*dt) iso $P $P $(1000.0*dt)
fix 1 all npt temp 4400 4400 $(100.0*dt) iso $P $P $(1000.0*dt)
fix 1 all npt temp 4400 4400 0.050000000000000002776 iso $P $P $(1000.0*dt)
fix 1 all npt temp 4400 4400 0.050000000000000002776 iso 900000 $P $(1000.0*dt)
fix 1 all npt temp 4400 4400 0.050000000000000002776 iso 900000 900000 $(1000.0*dt)
fix 1 all npt temp 4400 4400 0.050000000000000002776 iso 900000 900000 0.5
dump 1 all custom 1000 1equil.bin id type x y z vx vy vz
run   10000 # report performance
  update every 1 steps, delay 10 steps, check yes
Step          Temp          Press           CPU            Pxx            Pyy            Pzz            Pxy            Pxz            Pyz           KinEng         PotEng         TotEng         Volume           Lx             Ly             Lz          Atoms
0   4400           480859.5       0              480235.49      481143.76      481199.24     -871.61148      393.27617     -984.04576      9099.3455      10000.526      19099.872      117727.74      38.9           38.9           77.8               16000
Averages over the last 6 of 11 rows, steps 5000 to 10000:
Temp Press Pxx Pyy Pzz Pxy Pxz Pyz KinEng PotEng TotEng Volume Lx Ly Lz Atoms
4389.08 898761 899672 899895 896715 136.388 -190.647 -54.4172 9076.76 19414.7 28491.5 115803 38.6869 38.6869 77.3737 16000
Loop time of 75.8326 on 8 procs for 10000 steps with 16000 atoms

run  990000
Step          Temp          Press           CPU            Pxx            Pyy            Pzz            Pxy            Pxz            Pyz           KinEng         PotEng         TotEng         Volume           Lx             Ly             Lz          Atoms
10000   4337.5438      900977.86      0              898089.63      905965.38      898878.57     -474.84493      2298.1854      1477.7106      8970.1841      19523.709      28493.893      115848.25      38.69188       38.69188       77.383759          16000
Averages over the last 496 of 991 rows, steps 505000 to 1000000:
Temp Press Pxx Pyy Pzz Pxy Pxz Pyz KinEng PotEng TotEng Volume Lx Ly Lz Atoms
4400.76 899975 899836 899966 900121 34.4116 21.1318 22.5786 9100.92 19412.3 28513.2 115805 38.687 38.687 77.374 16000
Loop time of 7503.98 on 8 procs for 990000 steps with 16000 atoms

unfix 1
undump 1

#################### Fix half atoms along z-axis, heat the other half #################
region middle block INF INF INF INF 22.0 66.0
group mobile region middle
8969 atoms in group mobile
fix 2 mobile npt temp $T 6000 $(100.0*dt) z $P $P $(1000.0*dt)
fix 2 mobile npt temp 4400 6000 $(100.0*dt) z $P $P $(1000.0*dt)
fix 2 mobile npt temp 4400 6000 0.050000000000000002776 z $P $P $(1000.0*dt)
fix 2 mobile npt temp 4400 6000 0.050000000000000002776 z 900000 $P $(1000.0*dt)
fix 2 mobile npt temp 4400 6000 0.050000000000000002776 z 900000 900000 $(1000.0*dt)
fix 2 mobile npt temp 4400 6000 0.050000000000000002776 z 900000 900000 0.5
dump 2 all custom 1000 2heathalf.bin id type x y z vx vy vz
run  1000000
Step          Temp          Press           CPU            Pxx            Pyy            Pzz            Pxy            Pxz            Pyz           KinEng         PotEng         TotEng         Volume           Lx             Ly             Lz          Atoms
1000000   4375.6422      893808.95      0              895423.15      888740.69      897263.02     -1235.0136      800.82838      336.39271      9048.9727      19385.879      28434.852      116023.43      38.711372      38.711372      77.422745          16000
Averages over the last 501 of 1001 rows, steps 1500000 to 2000000:
Temp Press Pxx Pyy Pzz Pxy Pxz Pyz KinEng PotEng TotEng Volume Lx Ly Lz Atoms
5598.52 965622 1.00019e+06 996938 899732 -567.684 -1838.44 1000.62 11577.9 28175.9 39753.9 122153 38.7114 38.7114 81.5128 16000
Loop time of 7658.82 on 8 procs for 1000000 steps with 16000 atoms

unfix 2
undump 2

#################### Cool down the hot half to T_es ##############################
fix 3 mobile npt temp 6000 $T $(100.0*dt) z $P $P $(1000.0*dt)
fix 3 mobile npt temp 6000 4400 $(100.0*dt) z $P $P $(1000.0*dt)
fix 3 mobile npt temp 6000 4400 0.050000000000000002776 z $P $P $(1000.0*dt)
fix 3 mobile npt temp 6000 4400 0.050000000000000002776 z 900000 $P $(1000.0*dt)
fix 3 mobile npt temp 6000 4400 0.050000000000000002776 z 900000 900000 $(1000.0*dt)
fix 3 mobile npt temp 6000 4400 0.050000000000000002776 z 900000 900000 0.5
dump 3 all custom 1000 3coolhalf.bin id type x y z vx vy vz
run  1000000
Step          Temp          Press           CPU            Pxx            Pyy            Pzz            Pxy            Pxz            Pyz           KinEng         PotEng         TotEng         Volume           Lx             Ly             Lz          Atoms
2000000   6022.3314      964746.72      0              1000437.6      999010.26      894792.34     -1217.6546     -5050.9248      1412.8756      12454.38       28699.975      41154.355      123046.32      38.711372      38.711372      82.109139          16000
Averages over the last 501 of 1001 rows, steps 2500000 to 3000000:
Temp Press Pxx Pyy Pzz Pxy Pxz Pyz KinEng PotEng TotEng Volume Lx Ly Lz Atoms
4800.11 948007 973615 970354 900053 -435.304 -1925.34 972.554 9926.79 26304.8 36231.6 120522 38.7114 38.7114 80.4248 16000
Loop time of 7667.32 on 8 procs for 1000000 steps with 16000 atoms

unfix 3
undump 3

#################### Whole system relax in the nph ensemble at P ######################
fix 4 all nph iso $P $P $(1000.0*dt)
fix 4 all nph iso 900000 $P $(1000.0*dt)
fix 4 all nph iso 900000 900000 $(1000.0*dt)
fix 4 all nph iso 900000 900000 0.5
dump 4 all custom 1000 4nph.bin id type x y z vx vy vz
run 1000000
Step          Temp          Press           CPU            Pxx            Pyy            Pzz            Pxy            Pxz            Pyz           KinEng         PotEng         TotEng         Volume           Lx             Ly             Lz          Atoms
3000000   4419.2423      912072.32      0              916276.5       913268.43      906672.02     -3232.9078     -2610.4539     -4681.0296      9139.1392      21630.672      30769.811      117658.52      38.711372      38.711372      78.513845          16000
Averages over the last 501 of 1001 rows, steps 3500000 to 4000000:
Temp Press Pxx Pyy Pzz Pxy Pxz Pyz KinEng PotEng TotEng Volume Lx Ly Lz Atoms
4572.31 899822 904618 904187 890662 -11.9902 -212.241 50.4971 9455.69 20922.3 30378 117604 38.7054 38.7054 78.5017 16000
Loop time of 7122.94 on 8 procs for 1000000 steps with 16000 atoms
