atom_style atomic
units metal
boundary p p p
#atom_modify sort 0 0.0
newton on

read_data data.lammps
Reading data file ...
  orthogonal box = (0 0 0) to (3.89 3.89 3.89)
  reading atoms ...
  8 atoms
replicate 10 10 20
Replicating atoms ...
  orthogonal box = (0 0 0) to (38.9 38.9 77.8)
  16000 atoms
  replicate CPU = 0.007 seconds

### interactions

pair_style flare
pair_coeff * * lmp.flare
Reading potential file lmp.flare with DATE: Thu

# compute unc all flare/std/atom L_inv_lmp.flare sparse_desc_lmp.flare
# compute MaxUnc all reduce max c_unc

mass 1 12.011000
mass 2 28.085000

thermo_style custom step temp press cpu pxx pyy pzz pxy pxz pyz ke pe etotal vol lx ly lz atoms    #c_MaxUnc
thermo 1000
timestep 0.0005
restart 100000 restart_*.dat

#################### Equilibrate at P and T_es ##############################
velocity all create $T 41928459 rot yes dist gaussian
velocity all create 4200 41928459 rot yes dist gaussian
fix mom all momentum 1000 linear 1 1 1 angular

fix 1 all npt temp $T $T $(100.0*dt) iso $P $P $(1000.0*dt)
fix 1 all npt temp 4200 $T $(100.0*dt) iso $P $P $(1000.0*dt)
fix 1 all npt temp 4200 4200 $(100.0*dt) iso $P $P $(1000.0*dt)
fix 1 all npt temp 4200 4200 0.050000000000000002776 iso $P $P $(1000.0*dt)
fix 1 all npt temp 4200 4200 0.050000000000000002776 iso 900000 $P $(1000.0*dt)
fix 1 all npt temp 4200 4200 0.050000000000000002776 iso 900000 900000 $(1000.0*dt)
fix 1 all npt temp 4200 4200 0.050000000000000002776 iso 900000 900000 0.5
dump 1 all custom 1000 1equil.bin id type x y z vx vy vz
run   10000 # report performance
  update every 1 steps, delay 10 steps, check yes
Step          Temp          Press           CPU            Pxx            Pyy            Pzz            Pxy            Pxz            Pyz           KinEng         PotEng         TotEng         Volume           Lx             Ly             Lz          Atoms
0   4200           477106.94      0              476511.3       477378.28      477431.24     -831.99278      375.39998     -939.31641      8685.7389      10000.526      18686.265      117727.74      38.9           38.9           77.8               16000
Averages over the last 6 of 11 rows, steps 5000 to 10000:
Temp Press Pxx Pyy Pzz Pxy Pxz Pyz KinEng PotEng TotEng Volume Lx Ly Lz Atoms
4190.18 902298 902189 902701 902004 696.717 -646.679 -198.826 8665.42 19152.9 27818.3 115284 38.6289 38.6289 77.2578 16000
Loop time of 75.5271 on 8 procs for 10000 steps with 16000 atoms

run  990000
Step          Temp          Press           CPU            Pxx            Pyy            Pzz            Pxy            Pxz            Pyz           KinEng         PotEng         TotEng         Volume           Lx             Ly             Lz          Atoms
10000   4172.2643      909257.14      0              907274.36      911527.25      908969.81      2187.2638     -1622.8766     -666.01652      8628.3804      19257.217      27885.598      115115.99      38.610185      38.610185      77.220371          16000
Averages over the last 496 of 991 rows, steps 505000 to 1000000:
Temp Press Pxx Pyy Pzz Pxy Pxz Pyz KinEng PotEng TotEng Volume Lx Ly Lz Atoms
4199.51 899754 899658 899801 899804 13.0916 -63.1989 -70.6686 8684.72 19123.9 27808.7 115346 38.6359 38.6359 77.2718 16000
Loop time of 7471.72 on 8 procs for 990000 steps with 16000 atoms

unfix 1
undump 1

#################### Fix half atoms along z-axis, heat the other half #################
region middle block INF INF INF INF 22.0 66.0
group mobile region middle
9019 atoms in group mobile
fix 2 mobile npt temp $T 6000 $(100.0*dt) z $P $P $(1000.0*dt)
fix 2 mobile npt temp 4200 6000 $(100.0*dt) z $P $P $(1000.0*dt)
fix 2 mobile npt temp 4200 6000 0.050000000000000002776 z $P $P $(1000.0*dt)
fix 2 mobile npt temp 4200 6000 0.050000000000000002776 z 900000 $P $(1000.0*dt)
fix 2 mobile npt temp 4200 6000 0.050000000000000002776 z 900000 900000 $(1000.0*dt)
fix 2 mobile npt temp 4200 6000 0.050000000000000002776 z 900000 900000 0.5
dump 2 all custom 1000 2heathalf.bin id type x y z vx vy vz
run  1000000
Step          Temp          Press           CPU            Pxx            Pyy            Pzz            Pxy            Pxz            Pyz           KinEng         PotEng         TotEng         Volume           Lx             Ly             Lz          Atoms
1000000   4235.386       896092.94      0              897780.74      897125.8       893372.3       1265.0662     -502.70366     -1166.6333      8758.9183      19064.369      27823.288      115409.99      38.643027      38.643027      77.286054          16000
Averages over the last 501 of 1001 rows, steps 1500000 to 2000000:
Temp Press Pxx Pyy Pzz Pxy Pxz Pyz KinEng PotEng TotEng Volume Lx Ly Lz Atoms
5548.5 966734 1.00131e+06 998784 900103 814.204 771.31 -387.824 11474.5 27319.9 38794.4 121294 38.643 38.643 81.2262 16000
Loop time of 7634.22 on 8 procs for 1000000 steps with 16000 atoms

unfix 2
undump 2

#################### Cool down the hot half to T_es ##############################
fix 3 mobile npt temp 6000 $T $(100.0*dt) z $P $P $(1000.0*dt)
fix 3 mobile npt temp 6000 4200 $(100.0*dt) z $P $P $(1000.0*dt)
fix 3 mobile npt temp 6000 4200 0.050000000000000002776 z $P $P $(1000.0*dt)
fix 3 mobile npt temp 6000 4200 0.050000000000000002776 z 900000 $P $(1000.0*dt)
fix 3 mobile npt temp 6000 4200 0.050000000000000002776 z 900000 900000 $(1000.0*dt)
fix 3 mobile npt temp 6000 4200 0.050000000000000002776 z 900000 900000 0.5
dump 3 all custom 1000 3coolhalf.bin id type x y z vx vy vz
run  1000000
Step          Temp          Press           CPU            Pxx            Pyy            Pzz            Pxy            Pxz            Pyz           KinEng         PotEng         TotEng         Volume           Lx             Ly             Lz          Atoms
2000000   5960.0442      968657.39      0              1015643.6      1000115.6      890212.89      2319.6635     -328.15285      757.99096      12325.569      28588.248      40913.816      122694.93      38.643027      38.643027      82.164522          16000
Averages over the last 501 of 1001 rows, steps 2500000 to 3000000:
Temp Press Pxx Pyy Pzz Pxy Pxz Pyz KinEng PotEng TotEng Volume Lx Ly Lz Atoms
4650.98 942685 965408 962915 899733 829.974 871.286 -44.7258 9618.38 24865.1 34483.5 119311 38.643 38.643 79.8982 16000
Loop time of 7672.53 on 8 procs for 1000000 steps with 16000 atoms

unfix 3
undump 3

#################### Whole system relax in the nph ensemble at P ######################
fix 4 all nph iso $P $P $(1000.0*dt)
fix 4 all nph iso 900000 $P $(1000.0*dt)
fix 4 all nph iso 900000 900000 $(1000.0*dt)
fix 4 all nph iso 900000 900000 0.5
dump 4 all custom 1000 4nph.bin id type x y z vx vy vz
run 1000000
Step          Temp          Press           CPU            Pxx            Pyy            Pzz            Pxy            Pxz            Pyz           KinEng         PotEng         TotEng         Volume           Lx             Ly             Lz          Atoms
3000000   4231.0428      898530.61      0              901160.65      901575.67      892855.53     -230.86674     -1861.5711     -1983.5167      8749.9364      19315.855      28065.791      115616.42      38.643027      38.643027      77.424291          16000
Averages over the last 501 of 1001 rows, steps 3500000 to 4000000:
Temp Press Pxx Pyy Pzz Pxy Pxz Pyz KinEng PotEng TotEng Volume Lx Ly Lz Atoms
4132.69 899999 902759 902782 894457 -274.26 -38.5675 190.932 8546.53 19244.6 27791.2 115377 38.6163 38.6163 77.3707 16000
Loop time of 7561.01 on 8 procs for 1000000 steps with 16000 atoms
