atom_style atomic
units metal
boundary p p p
#atom_modify sort 0 0.0
newton on

read_data data.lammps
Reading data file ...
  orthogonal box = (0 0 0) to (3.89 3.89 3.89)
  reading atoms ...
  8 atoms
replicate 10 10 20
Replicating atoms ...
  orthogonal box = (0 0 0) to (38.9 38.9 77.8)
  16000 atoms
  replicate CPU = 0.007 seconds

### interactions

pair_style flare
pair_coeff * * lmp.flare
Reading potential file lmp.flare with DATE: Thu

# compute unc all flare/std/atom L_inv_lmp.flare sparse_desc_lmp.flare
# compute MaxUnc all reduce max c_unc

mass 1 12.011000
mass 2 28.085000

thermo_style custom step temp press cpu pxx pyy pzz pxy pxz pyz ke pe etotal vol lx ly lz atoms    #c_MaxUnc
thermo 1000
timestep 0.0005
restart 100000 restart_*.dat

#################### Equilibrate at P and T_es ##############################
velocity all create $T 41928459 rot yes dist gaussian
velocity all create 4600 41928459 rot yes dist gaussian
fix mom all momentum 1000 linear 1 1 1 angular

fix 1 all npt temp $T $T $(100.0*dt) iso $P $P $(1000.0*dt)
fix 1 all npt temp 4600 $T $(100.0*dt) iso $P $P $(1000.0*dt)
fix 1 all npt temp 4600 4600 $(100.0*dt) iso $P $P $(1000.0*dt)
fix 1 all npt temp 4600 4600 0.050000000000000002776 iso $P $P $(1000.0*dt)
fix 1 all npt temp 4600 4600 0.050000000000000002776 iso 900000 $P $(1000.0*dt)
fix 1 all npt temp 4600 4600 0.050000000000000002776 iso 900000 900000 $(1000.0*dt)
fix 1 all npt temp 4600 4600 0.050000000000000002776 iso 900000 900000 0.5
dump 1 all custom 1000 1equil.bin id type x y z vx vy vz
run   10000 # report performance
  update every 1 steps, delay 10 steps, check yes
Step          Temp          Press           CPU            Pxx            Pyy            Pzz            Pxy            Pxz            Pyz           KinEng         PotEng         TotEng         Volume           Lx             Ly             Lz          Atoms
0   4600           484612.06      0              483959.69      484909.24      484967.25     -911.23018      411.15236     -1028.7751      9512.9521      10000.526      19513.478      117727.74      38.9           38.9           77.8               16000
Averages over the last 6 of 11 rows, steps 5000 to 10000:
Temp Press Pxx Pyy Pzz Pxy Pxz Pyz KinEng PotEng TotEng Volume Lx Ly Lz Atoms
4591.18 897540 896414 898702 897504 -372.14 -315.623 -331.611 9494.71 19700.2 29194.9 116331 38.7455 38.7455 77.4911 16000
Loop time of 75.3651 on 8 procs for 10000 steps with 16000 atoms

run  990000
Step          Temp          Press           CPU            Pxx            Pyy            Pzz            Pxy            Pxz            Pyz           KinEng         PotEng         TotEng         Volume           Lx             Ly             Lz          Atoms
10000   4583.4249      886703.49      0              886501.64      885421         888187.83      887.09765      885.75682      657.97266      9478.6741      19613.077      29091.751      116659.28      38.781961      38.781961      77.563923          16000
Averages over the last 496 of 991 rows, steps 505000 to 1000000:
Temp Press Pxx Pyy Pzz Pxy Pxz Pyz KinEng PotEng TotEng Volume Lx Ly Lz Atoms
4597.5 899872 900045 899842 899729 90.9546 -54.3665 119.137 9507.77 19742.6 29250.3 116316 38.7439 38.7439 77.4878 16000
Loop time of 7456.01 on 8 procs for 990000 steps with 16000 atoms

unfix 1
undump 1

#################### Fix half atoms along z-axis, heat the other half #################
region middle block INF INF INF INF 22.0 66.0
group mobile region middle
9006 atoms in group mobile
fix 2 mobile npt temp $T 6000 $(100.0*dt) z $P $P $(1000.0*dt)
fix 2 mobile npt temp 4600 6000 $(100.0*dt) z $P $P $(1000.0*dt)
fix 2 mobile npt temp 4600 6000 0.050000000000000002776 z $P $P $(1000.0*dt)
fix 2 mobile npt temp 4600 6000 0.050000000000000002776 z 900000 $P $(1000.0*dt)
fix 2 mobile npt temp 4600 6000 0.050000000000000002776 z 900000 900000 $(1000.0*dt)
fix 2 mobile npt temp 4600 6000 0.050000000000000002776 z 900000 900000 0.5
dump 2 all custom 1000 2heathalf.bin id type x y z vx vy vz
run  1000000
Step          Temp          Press           CPU            Pxx            Pyy            Pzz            Pxy            Pxz            Pyz           KinEng         PotEng         TotEng         Volume           Lx             Ly             Lz          Atoms
1000000   4586.3424      898792.25      0              899346.26      899767.4       897263.11      1190.2159      737.10399      727.74247      9484.7078      19690.613      29175.321      116280.79      38.739974      38.739974      77.479947          16000
Averages over the last 501 of 1001 rows, steps 1500000 to 2000000:
Temp Press Pxx Pyy Pzz Pxy Pxz Pyz KinEng PotEng TotEng Volume Lx Ly Lz Atoms
5649.62 963410 996038 994372 899819 215.182 1351.29 387.909 11683.6 27868.9 39552.5 122095 38.74 38.74 81.3538 16000
Loop time of 7639.02 on 8 procs for 1000000 steps with 16000 atoms

unfix 2
undump 2

#################### Cool down the hot half to T_es ##############################
fix 3 mobile npt temp 6000 $T $(100.0*dt) z $P $P $(1000.0*dt)
fix 3 mobile npt temp 6000 4600 $(100.0*dt) z $P $P $(1000.0*dt)
fix 3 mobile npt temp 6000 4600 0.050000000000000002776 z $P $P $(1000.0*dt)
fix 3 mobile npt temp 6000 4600 0.050000000000000002776 z 900000 $P $(1000.0*dt)
fix 3 mobile npt temp 6000 4600 0.050000000000000002776 z 900000 900000 $(1000.0*dt)
fix 3 mobile npt temp 6000 4600 0.050000000000000002776 z 900000 900000 0.5
dump 3 all custom 1000 3coolhalf.bin id type x y z vx vy vz
run  1000000
Step          Temp          Press           CPU            Pxx            Pyy            Pzz            Pxy            Pxz            Pyz           KinEng         PotEng         TotEng         Volume           Lx             Ly             Lz          Atoms
2000000   6042.4081      966403.42      0              1003183        1005497.8      890529.44     -1531.7771     -1085.8117      2825.7211      12495.9        28675.553      41171.453      123120.57      38.739974      38.739974      82.037416          16000
Averages over the last 501 of 1001 rows, steps 2500000 to 3000000:
Temp Press Pxx Pyy Pzz Pxy Pxz Pyz KinEng PotEng TotEng Volume Lx Ly Lz Atoms
4949.8 951176 977230 975830 900467 459.68 1345.85 385.65 10236.4 26703.8 36940.1 120950 38.74 38.74 80.5911 16000
Loop time of 7696.81 on 8 procs for 1000000 steps with 16000 atoms

unfix 3
undump 3

#################### Whole system relax in the nph ensemble at P ######################
fix 4 all nph iso $P $P $(1000.0*dt)
fix 4 all nph iso 900000 $P $(1000.0*dt)
fix 4 all nph iso 900000 900000 $(1000.0*dt)
fix 4 all nph iso 900000 900000 0.5
dump 4 all custom 1000 4nph.bin id type x y z vx vy vz
run 1000000
Step          Temp          Press           CPU            Pxx            Pyy            Pzz            Pxy            Pxz            Pyz           KinEng         PotEng         TotEng         Volume           Lx             Ly             Lz          Atoms
3000000   4632.439       924433.01      0              933149.35      933506.8       906642.87      1472.9141      6222.0609      81.850043      9580.0371      23365.748      32945.785      118974.5       38.739974      38.739974      79.274815          16000
Averages over the last 501 of 1001 rows, steps 3500000 to 4000000:
Temp Press Pxx Pyy Pzz Pxy Pxz Pyz KinEng PotEng TotEng Volume Lx Ly Lz Atoms
4517.76 901199 896190 896002 911404 -83.6952 -16.7455 -213.078 9342.88 22817.1 32160 119604 38.8082 38.8082 79.4144 16000
Loop time of 7551.05 on 8 procs for 1000000 steps with 16000 atoms
